4xmr_ligand
                    3D
 Schrodinger Suite 2020-3.
 22 21  0  0  1  0            999 V2000
  -13.3440  -29.2240  -40.4810 N   0  3  0  0  0  0
  -13.0980  -30.6610  -40.4570 C   0  0  2  0  0  0
  -12.6380  -31.0790  -41.8380 C   0  0  0  0  0  0
  -12.8580  -30.3520  -42.8190 O   0  5  0  0  0  0
  -14.3610  -31.4490  -40.0220 C   0  0  2  0  0  0
  -13.9980  -32.8780  -39.6240 C   0  0  0  0  0  0
  -15.4200  -31.4500  -41.1130 C   0  0  0  0  0  0
  -15.1390  -33.6040  -38.9750 C   0  0  0  0  0  0
  -12.0300  -32.1310  -41.9800 O   0  0  0  0  0  0
  -12.4283  -28.7004  -40.7931 H   0  0  0  0  0  0
  -13.6357  -28.8851  -39.4760 H   0  0  0  0  0  0
  -14.1535  -29.0024  -41.1920 H   0  0  0  0  0  0
  -12.3007  -30.8366  -39.7198 H   0  0  0  0  0  0
  -14.8014  -30.9504  -39.1459 H   0  0  0  0  0  0
  -13.7033  -33.4444  -40.5197 H   0  0  0  0  0  0
  -13.1609  -32.8586  -38.9106 H   0  0  0  0  0  0
  -15.6671  -30.4132  -41.3850 H   0  0  0  0  0  0
  -16.3239  -31.9582  -40.7461 H   0  0  0  0  0  0
  -15.0351  -31.9793  -41.9971 H   0  0  0  0  0  0
  -14.8219  -34.6236  -38.7106 H   0  0  0  0  0  0
  -15.9871  -33.6534  -39.6738 H   0  0  0  0  0  0
  -15.4447  -33.0674  -38.0647 H   0  0  0  0  0  0
  1  2  1  0  0  0
  1 10  1  0  0  0
  1 11  1  0  0  0
  1 12  1  0  0  0
  2  3  1  0  0  0
  2  5  1  0  0  0
  2 13  1  0  0  0
  3  4  1  0  0  0
  3  9  2  0  0  0
  5  6  1  0  0  0
  5  7  1  0  0  0
  5 14  1  0  0  0
  6  8  1  0  0  0
  6 15  1  0  0  0
  6 16  1  0  0  0
  7 17  1  0  0  0
  7 18  1  0  0  0
  7 19  1  0  0  0
  8 20  1  0  0  0
  8 21  1  0  0  0
  8 22  1  0  0  0
M  CHG  2   1   1   4  -1
M  END
> <s_m_source_file>
../4xmr_ligand.sdf

> <i_m_source_file_index>
1

> <s_epik_input>
W09IXUMoPU8pW0NAQEhdKFtOSDMrXSlbQ0BASF0oW0NIM10pW0NIMl1bQ0gzXQ==

> <s_epik_cmdline>
J2VwaWtfYXBwJywgJy1pbWFlJywgJ2xpZ2FuZF9wcm8ubWFlJywgJy1vbWFlJywgJ2xpZ2FuZF9wcmVwLm1hZScsICctbXMnLCAnMScsICctcGgnLCAnNycsICctcGh0JywgJzAuNScsICctbnQn

> <r_lp_tautomer_probability>
1

> <r_epik_Ionization_Penalty>
  0.0008

> <r_epik_Ionization_Penalty_Charging>
  0.0008

> <r_epik_Ionization_Penalty_Neutral>
  0.0000

> <r_epik_State_Penalty>
 -0.0000

> <r_epik_Charging_Adjusted_Penalty>
0.000784145532055113

> <i_epik_Tot_Q>
0

> <i_epik_Tot_abs_Q>
2

$$$$
