4xnw_ligand
                    3D
 Schrodinger Suite 2020-3.
 43 46  0  0  1  0            999 V2000
   24.5600   20.5540   12.0400 O   0  5  0  0  0  0
   24.1960   21.0300   10.5560 P   0  0  0  0  0  0
   23.0760   19.9900   10.0560 O   0  5  0  0  0  0
   25.4410   20.9900    9.7350 O   0  0  0  0  0  0
   23.5010   22.5100   10.6520 O   0  0  0  0  0  0
   22.1710   22.7730   10.1560 C   0  0  1  0  0  0
   21.2060   22.5860   11.3000 C   0  0  0  0  0  0
   22.0160   24.2660    9.6780 C   0  0  2  0  0  0
   21.8740   24.5660    8.2070 C   0  0  0  0  0  0
   22.4470   23.5610    7.3930 O   0  0  0  0  0  0
   22.2400   23.7210    5.8030 P   0  0  0  0  0  0
   22.5040   25.2550    5.4710 O   0  5  0  0  0  0
   20.6450   23.4990    5.5380 O   0  5  0  0  0  0
   23.0850   22.7540    5.0470 O   0  0  0  0  0  0
   22.0640   25.3950   10.6460 C   0  0  0  0  0  0
   20.7610   24.7550   10.3040 C   0  0  2  0  0  0
   20.1260   23.6620   11.1100 C   0  0  1  0  0  0
   18.9600   23.1430   10.3580 N   0  0  0  0  0  0
   18.8750   22.8400    9.0700 C   0  0  0  0  0  0
   17.6540   22.3760    8.8190 N   0  0  0  0  0  0
   16.9790   22.3910    9.9550 C   0  0  0  0  0  0
   17.7890   22.8660   10.9030 C   0  0  0  0  0  0
   17.3450   22.9820   12.1610 N   0  0  0  0  0  0
   16.0810   22.6170   12.4580 C   0  0  0  0  0  0
   15.3690   22.7810   14.4260 I   0  0  0  0  0  0
   15.2650   22.1460   11.5010 N   0  0  0  0  0  0
   15.7330   22.0360   10.2600 C   0  0  0  0  0  0
   14.9870   21.5790    9.2750 N   0  0  0  0  0  0
   13.8030   20.7800    9.6410 C   0  0  0  0  0  0
   22.0244   22.0448    9.3447 H   0  0  0  0  0  0
   20.7761   21.5745   11.2554 H   0  0  0  0  0  0
   21.7383   22.7165   12.2538 H   0  0  0  0  0  0
   20.8073   24.6435    7.9499 H   0  0  0  0  0  0
   22.3767   25.5168    7.9765 H   0  0  0  0  0  0
   22.6995   25.1187   11.5003 H   0  0  0  0  0  0
   22.4810   26.2846   10.1514 H   0  0  0  0  0  0
   19.8013   25.2251   10.0435 H   0  0  0  0  0  0
   19.7382   24.0166   12.0764 H   0  0  0  0  0  0
   19.6742   22.9526    8.3374 H   0  0  0  0  0  0
   15.2152   21.7708    8.2162 H   0  0  0  0  0  0
   13.2763   20.4656    8.7279 H   0  0  0  0  0  0
   13.1287   21.3874   10.2626 H   0  0  0  0  0  0
   14.1208   19.8910   10.2055 H   0  0  0  0  0  0
  1  2  1  0  0  0
  2  3  1  0  0  0
  2  4  2  0  0  0
  2  5  1  0  0  0
  5  6  1  0  0  0
  6  7  1  0  0  0
  6  8  1  0  0  0
  6 30  1  0  0  0
  7 17  1  0  0  0
  7 31  1  0  0  0
  7 32  1  0  0  0
  8  9  1  0  0  0
  8 15  1  0  0  0
  8 16  1  0  0  0
  9 10  1  0  0  0
  9 33  1  0  0  0
  9 34  1  0  0  0
 10 11  1  0  0  0
 11 12  1  0  0  0
 11 13  1  0  0  0
 11 14  2  0  0  0
 15 16  1  0  0  0
 15 35  1  0  0  0
 15 36  1  0  0  0
 16 17  1  0  0  0
 16 37  1  0  0  0
 17 18  1  0  0  0
 17 38  1  0  0  0
 18 19  1  0  0  0
 18 22  1  0  0  0
 19 20  2  0  0  0
 19 39  1  0  0  0
 20 21  1  0  0  0
 21 22  2  0  0  0
 21 27  1  0  0  0
 22 23  1  0  0  0
 23 24  2  0  0  0
 24 25  1  0  0  0
 24 26  1  0  0  0
 26 27  2  0  0  0
 27 28  1  0  0  0
 28 29  1  0  0  0
 28 40  1  0  0  0
 29 41  1  0  0  0
 29 42  1  0  0  0
 29 43  1  0  0  0
M  CHG  4   1  -1   3  -1  12  -1  13  -1
M  END
> <s_m_source_file>
../4xnw_ligand.sdf

> <i_m_source_file_index>
1

> <s_epik_input>
W09IXVAoPU8pKFtPSF0pT1tDSDJdW0NAQF0xMltDQEhdKFtDSDJdMilbQ0BIXShbQ0gyXVtDQEBIXTFPUCg9TykoW09IXSlbT0hdKW4oW2NIXW4zKWMoYzM0KW5jKEkpbmM0W05IXVtDSDNd

> <s_epik_cmdline>
J2VwaWtfYXBwJywgJy1pbWFlJywgJ2xpZ2FuZF9wcm8ubWFlJywgJy1vbWFlJywgJ2xpZ2FuZF9wcmVwLm1hZScsICctbXMnLCAnMScsICctcGgnLCAnNycsICctcGh0JywgJzAuNScsICctbnQn

> <r_lp_tautomer_probability>
1

> <r_epik_Ionization_Penalty>
  0.2821

> <r_epik_Ionization_Penalty_Charging>
  0.2821

> <r_epik_Ionization_Penalty_Neutral>
  0.0000

> <r_epik_State_Penalty>
 -0.0000

> <r_epik_Charging_Adjusted_Penalty>
0.282052782824024

> <i_epik_Tot_Q>
-4

> <i_epik_Tot_abs_Q>
4

$$$$
