4xpj_ligand
                    3D
 Schrodinger Suite 2020-3.
 77 77  0  0  1  0            999 V2000
  -10.3420    3.1300   22.3610 P   0  0  2  0  0  0
  -11.4330   -1.6280   26.2860 O   0  0  0  0  0  0
  -10.9170   -0.9220   23.5790 O   0  0  0  0  0  0
  -10.1580    1.7870   23.2060 O   0  0  0  0  0  0
  -10.1740    4.3190   23.2680 O   0  0  0  0  0  0
  -11.7190    3.1540   21.7520 O   0  5  0  0  0  0
   -6.8130    2.1950   15.6340 O   0  0  0  0  0  0
  -10.4600    2.6800   18.3400 O   0  0  0  0  0  0
   -8.8380    1.6980   16.6140 O   0  0  0  0  0  0
   -9.2370    3.1860   21.1920 O   0  0  0  0  0  0
  -10.0670    2.6340   25.7810 O   0  0  0  0  0  0
  -12.2900    2.9420   27.3160 O   0  0  0  0  0  0
  -13.0600    0.2350   27.6980 O   0  0  0  0  0  0
   -9.1530    2.6380   18.8400 C   0  0  1  0  0  0
   -9.1700    2.0920   20.2560 C   0  0  0  0  0  0
  -12.0100    0.6310   26.8130 C   0  0  2  0  0  0
  -12.3260    2.0040   26.2600 C   0  0  2  0  0  0
  -11.8730   -0.4090   25.7140 C   0  0  1  0  0  0
  -12.1650    1.7370    1.7310 C   0  0  0  0  0  0
  -11.2720    0.7250    2.4640 C   0  0  0  0  0  0
  -11.2700    1.0380    3.9740 C   0  0  0  0  0  0
  -10.5500   -0.1000    4.7340 C   0  0  0  0  0  0
  -10.9100   -0.0270    6.2430 C   0  0  0  0  0  0
   -9.6060   -0.0970    7.0910 C   0  0  0  0  0  0
   -9.7940    0.7150    8.3930 C   0  0  0  0  0  0
   -8.8020    0.2120    9.4640 C   0  0  0  0  0  0
   -8.8750    1.1380   10.7200 C   0  0  0  0  0  0
   -8.2250    0.4230   11.9220 C   0  0  0  0  0  0
   -8.1250    1.4000   13.1140 C   0  0  0  0  0  0
   -8.0980    0.6110   14.4130 C   0  0  0  0  0  0
  -10.8820    0.0200   24.6410 C   0  0  2  0  0  0
   -7.8490    1.5570   15.5780 C   0  0  0  0  0  0
  -11.2000    1.3930   24.0880 C   0  0  1  0  0  0
  -11.3330    2.4310   25.1840 C   0  0  2  0  0  0
   -8.2890    1.7260   17.9460 C   0  0  0  0  0  0
  -12.0195   -2.1035   27.0859 H   0  0  0  0  0  0
  -10.7111   -1.9839   23.7787 H   0  0  0  0  0  0
  -11.2248    3.2841   18.8500 H   0  0  0  0  0  0
   -9.9562    3.3559   26.6035 H   0  0  0  0  0  0
  -12.9401    2.8079   28.1931 H   0  0  0  0  0  0
  -13.3148    0.8626   28.5647 H   0  0  0  0  0  0
   -8.8132    3.6841   18.8237 H   0  0  0  0  0  0
   -8.2534    1.5111   20.4360 H   0  0  0  0  0  0
  -10.0477    1.4423   20.3879 H   0  0  0  0  0  0
  -11.0777    0.6788   27.3948 H   0  0  0  0  0  0
  -13.3486    2.0101   25.8548 H   0  0  0  0  0  0
  -12.8565   -0.5990   25.2595 H   0  0  0  0  0  0
  -12.1657    1.5128    0.6541 H   0  0  0  0  0  0
  -11.7772    2.7534    1.8937 H   0  0  0  0  0  0
  -13.1916    1.6695    2.1203 H   0  0  0  0  0  0
  -11.6598   -0.2914    2.3013 H   0  0  0  0  0  0
  -10.2454    0.7925    2.0747 H   0  0  0  0  0  0
  -10.7440    1.9878    4.1509 H   0  0  0  0  0  0
  -12.3066    1.1206    4.3327 H   0  0  0  0  0  0
  -10.8695   -1.0713    4.3283 H   0  0  0  0  0  0
   -9.4622    0.0084    4.6118 H   0  0  0  0  0  0
  -11.4320    0.9189    6.4501 H   0  0  0  0  0  0
  -11.5640   -0.8717    6.5052 H   0  0  0  0  0  0
   -9.3871   -1.1456    7.3411 H   0  0  0  0  0  0
   -8.7700    0.3244    6.5135 H   0  0  0  0  0  0
   -9.6058    1.7799    8.1914 H   0  0  0  0  0  0
  -10.8234    0.5876    8.7592 H   0  0  0  0  0  0
   -9.0640   -0.8168    9.7520 H   0  0  0  0  0  0
   -7.7809    0.2296    9.0552 H   0  0  0  0  0  0
   -8.3375    2.0758   10.5159 H   0  0  0  0  0  0
   -9.9272    1.3611   10.9504 H   0  0  0  0  0  0
   -8.8395   -0.4428   12.2097 H   0  0  0  0  0  0
   -7.2171    0.0812   11.6441 H   0  0  0  0  0  0
   -7.2029    1.9933   13.0255 H   0  0  0  0  0  0
   -8.9954    2.0726   13.1109 H   0  0  0  0  0  0
   -9.0636    0.1033   14.5537 H   0  0  0  0  0  0
   -7.2930   -0.1374   14.3708 H   0  0  0  0  0  0
   -9.8618    0.0185   25.0524 H   0  0  0  0  0  0
  -12.1320    1.3482   23.5054 H   0  0  0  0  0  0
  -11.6419    3.3911   24.7450 H   0  0  0  0  0  0
   -8.2813    0.7073   18.3609 H   0  0  0  0  0  0
   -7.2608    2.1153   17.9107 H   0  0  0  0  0  0
  1  4  1  0  0  0
  1  5  2  0  0  0
  1  6  1  0  0  0
  1 10  1  0  0  0
  2 18  1  0  0  0
  2 36  1  0  0  0
  3 31  1  0  0  0
  3 37  1  0  0  0
  4 33  1  0  0  0
  7 32  2  0  0  0
  8 14  1  0  0  0
  8 38  1  0  0  0
  9 32  1  0  0  0
  9 35  1  0  0  0
 10 15  1  0  0  0
 11 34  1  0  0  0
 11 39  1  0  0  0
 12 17  1  0  0  0
 12 40  1  0  0  0
 13 16  1  0  0  0
 13 41  1  0  0  0
 14 15  1  0  0  0
 14 35  1  0  0  0
 14 42  1  0  0  0
 15 43  1  0  0  0
 15 44  1  0  0  0
 16 17  1  0  0  0
 16 18  1  0  0  0
 16 45  1  0  0  0
 17 34  1  0  0  0
 17 46  1  0  0  0
 18 31  1  0  0  0
 18 47  1  0  0  0
 19 20  1  0  0  0
 19 48  1  0  0  0
 19 49  1  0  0  0
 19 50  1  0  0  0
 20 21  1  0  0  0
 20 51  1  0  0  0
 20 52  1  0  0  0
 21 22  1  0  0  0
 21 53  1  0  0  0
 21 54  1  0  0  0
 22 23  1  0  0  0
 22 55  1  0  0  0
 22 56  1  0  0  0
 23 24  1  0  0  0
 23 57  1  0  0  0
 23 58  1  0  0  0
 24 25  1  0  0  0
 24 59  1  0  0  0
 24 60  1  0  0  0
 25 26  1  0  0  0
 25 61  1  0  0  0
 25 62  1  0  0  0
 26 27  1  0  0  0
 26 63  1  0  0  0
 26 64  1  0  0  0
 27 28  1  0  0  0
 27 65  1  0  0  0
 27 66  1  0  0  0
 28 29  1  0  0  0
 28 67  1  0  0  0
 28 68  1  0  0  0
 29 30  1  0  0  0
 29 69  1  0  0  0
 29 70  1  0  0  0
 30 32  1  0  0  0
 30 71  1  0  0  0
 30 72  1  0  0  0
 31 33  1  0  0  0
 31 73  1  0  0  0
 33 34  1  0  0  0
 33 74  1  0  0  0
 34 75  1  0  0  0
 35 76  1  0  0  0
 35 77  1  0  0  0
M  CHG  1   6  -1
M  END
> <s_m_source_file>
../4xpj_ligand.sdf

> <i_m_source_file_index>
1

> <s_epik_input>
W09IXVtDQEBIXTFbQ0BASF0oW09IXSlbQ0BASF0oW09IXSlbQ0BIXShbQ0BIXShbT0hdKVtDQEhdMVtPSF0pT1tQQF0oPU8pKFtPSF0pT1tDSDJdW0NASF0oW09IXSlbQ0gyXU9DKD1PKVtDSDJdW0NIMl1bQ0gyXVtDSDJdW0NIMl1bQ0gyXVtDSDJdW0NIMl1bQ0gyXVtDSDJdW0NIMl1bQ0gzXQ==

> <s_epik_cmdline>
J2VwaWtfYXBwJywgJy1pbWFlJywgJ2xpZ2FuZF9wcm8ubWFlJywgJy1vbWFlJywgJ2xpZ2FuZF9wcmVwLm1hZScsICctbXMnLCAnMScsICctcGgnLCAnNycsICctcGh0JywgJzAuNScsICctbnQn

> <r_lp_tautomer_probability>
1

> <r_epik_Ionization_Penalty>
  0.0003

> <r_epik_Ionization_Penalty_Charging>
  0.0003

> <r_epik_Ionization_Penalty_Neutral>
  0.0000

> <r_epik_State_Penalty>
 -0.0000

> <r_epik_Charging_Adjusted_Penalty>
0.000339275880617008

> <i_epik_Tot_Q>
-1

> <i_epik_Tot_abs_Q>
1

> <s_epik_Chemistry_Notes>
This compound has an ester and may undergo hydrolysis at high or low pH.

$$$$
