4xqa_ligand
                    3D
 Schrodinger Suite 2020-3.
164169  0  0  1  0            999 V2000
   -0.4660    1.6570    4.6730 O   0  0  0  0  0  0
   -1.3770    1.6470    3.5640 C   0  0  0  0  0  0
   -0.6130    1.8790    2.2670 C   0  0  1  0  0  0
    0.4100    0.8910    2.0930 O   0  0  0  0  0  0
   -1.5560    1.9120    1.0610 C   0  0  1  0  0  0
   -2.3740    3.0840    1.1810 O   0  0  0  0  0  0
   -0.6130    2.0420   -0.1290 C   0  0  2  0  0  0
    0.1460    3.2120    0.0690 O   0  0  0  0  0  0
   -1.4130    2.1460   -1.4440 C   0  0  2  0  0  0
   -2.2630    0.9350   -1.5850 N   0  0  0  0  0  0
   -3.5630    0.9590   -1.8770 C   0  0  0  0  0  0
   -4.2510    1.9670   -1.9910 O   0  0  0  0  0  0
   -4.2230   -0.4180   -1.9690 C   0  0  0  0  0  0
   -0.4110    2.2840   -2.6170 C   0  0  1  0  0  0
   -1.1060    2.5110   -3.8790 O   0  0  0  0  0  0
    0.3540    3.5480   -2.3150 C   0  0  0  0  0  0
    1.0690    3.4060   -0.9670 C   0  0  2  0  0  0
    2.1750    2.2690   -0.8910 C   0  0  0  0  0  0
    2.2700    1.5370    0.1410 O   0  0  0  0  0  0
    3.0090    2.2070   -1.8210 O   0  0  0  0  0  0
    1.7630    4.6130   -0.7110 O   0  0  0  0  0  0
    2.4180    4.6880    0.5390 C   0  0  0  0  0  0
    3.0630    6.0840    0.5730 C   0  0  0  0  0  0
    2.3450    7.2360    0.2260 C   0  0  0  0  0  0
    3.8750    6.4850    1.6760 N   0  0  0  0  0  0
    3.6090    7.7050    1.8970 N   0  0  0  0  0  0
    2.7210    8.1810    1.0960 N   0  0  0  0  0  0
    2.2040    9.6260    1.1250 C   0  0  0  0  0  0
    3.2980   10.5560    0.5950 C   0  0  0  0  0  0
    3.7170   10.2220   -0.7720 N   0  3  0  0  0  0
    5.1680   10.0030   -0.8480 C   0  0  0  0  0  0
    5.6940    9.1560   -2.0360 C   0  0  0  0  0  0
    5.4770    9.6380   -3.4220 N   0  0  0  0  0  0
    4.9480    9.1540   -4.5570 C   0  0  0  0  0  0
    5.9020   10.7700   -3.6070 N   0  0  0  0  0  0
    5.7390   11.1320   -4.6690 N   0  0  0  0  0  0
    5.1450   10.1860   -5.3690 C   0  0  0  0  0  0
    4.7910   10.3620   -6.8380 C   0  0  0  0  0  0
    3.3750   10.2730   -6.9480 O   0  0  0  0  0  0
    2.9460   10.0180   -8.2780 C   0  0  1  0  0  0
    3.4090   11.2960   -9.0950 C   0  0  0  0  0  0
    2.8170   12.3690   -8.8850 O   0  0  0  0  0  0
    4.4320   11.2160   -9.8310 O   0  0  0  0  0  0
    3.6080    8.8790   -8.8040 O   0  0  0  0  0  0
    1.4620    9.7730   -8.2340 C   0  0  0  0  0  0
    0.9360    9.4830   -9.6270 C   0  0  2  0  0  0
   -0.4850    9.2340   -9.5020 O   0  0  0  0  0  0
    1.6910    8.2380  -10.1010 C   0  0  1  0  0  0
    1.2880    7.8900  -11.4760 N   0  0  0  0  0  0
    0.5400    6.8010  -11.7930 C   0  0  0  0  0  0
    0.1460    5.9360  -10.9970 O   0  0  0  0  0  0
    0.2410    6.6320  -13.2740 C   0  0  0  0  0  0
    3.2070    8.5620  -10.1180 C   0  0  2  0  0  0
    4.0150    7.3460  -10.5790 C   0  0  2  0  0  0
    3.8280    6.2440   -9.6900 O   0  0  0  0  0  0
    5.4930    7.7710  -10.4320 C   0  0  2  0  0  0
    5.7510    9.0340  -11.0790 O   0  0  0  0  0  0
    6.4460    6.6860  -10.9060 C   0  0  0  0  0  0
    7.7940    7.1080  -10.6800 O   0  0  0  0  0  0
    3.0070   10.6260   -1.9990 C   0  0  0  0  0  0
    2.8260   12.1510   -2.1670 C   0  0  0  0  0  0
    1.8720   12.8530   -1.2250 N   0  0  0  0  0  0
    0.5680   12.6280   -1.4150 C   0  0  0  0  0  0
    2.0100   13.6190   -0.3290 N   0  0  0  0  0  0
    0.9020   13.9650    0.1860 N   0  0  0  0  0  0
   -0.0440   13.3590   -0.4960 C   0  0  0  0  0  0
   -1.5500   13.4760   -0.2270 C   0  0  0  0  0  0
   -2.1970   12.3240   -0.7470 O   0  0  0  0  0  0
   -3.5720   12.4020   -0.9640 C   0  0  1  0  0  0
   -4.1560   12.7290    0.4740 C   0  0  0  0  0  0
   -4.5580   13.8950    0.7270 O   0  0  0  0  0  0
   -4.1520   11.8410    1.3460 O   0  0  0  0  0  0
   -3.8710   13.4740   -1.8070 O   0  0  0  0  0  0
   -4.0290   11.0970   -1.5670 C   0  0  0  0  0  0
   -5.5140   11.1470   -1.8270 C   0  0  2  0  0  0
   -5.9100    9.9330   -2.4310 O   0  0  0  0  0  0
   -5.7460   12.3260   -2.8070 C   0  0  1  0  0  0
   -7.1760   12.4880   -3.1180 N   0  0  0  0  0  0
   -7.7200   12.2650   -4.3400 C   0  0  0  0  0  0
   -7.0580   11.9580   -5.3490 O   0  0  0  0  0  0
   -9.2330   12.5020   -4.4340 C   0  0  0  0  0  0
   -5.2400   13.6260   -2.1210 C   0  0  2  0  0  0
   -5.4250   14.8440   -3.0200 C   0  0  2  0  0  0
   -4.5910   14.6930   -4.1760 O   0  0  0  0  0  0
   -4.8710   16.0430   -2.2200 C   0  0  2  0  0  0
   -5.3770   16.1150   -0.8640 O   0  0  0  0  0  0
   -5.1340   17.3410   -2.9850 C   0  0  0  0  0  0
   -4.5870   18.4510   -2.2360 O   0  0  0  0  0  0
   -0.8423    1.5042    5.6953 H   0  0  0  0  0  0
   -1.8866    0.6733    3.5169 H   0  0  0  0  0  0
   -2.1226    2.4451    3.6948 H   0  0  0  0  0  0
   -0.0648    2.8303    2.3335 H   0  0  0  0  0  0
    1.1697    0.7423    2.8745 H   0  0  0  0  0  0
   -2.2619    1.0732    0.9711 H   0  0  0  0  0  0
   -3.1146    3.1572    1.9911 H   0  0  0  0  0  0
    0.1035    1.2090   -0.1822 H   0  0  0  0  0  0
   -2.1048    3.0013   -1.4447 H   0  0  0  0  0  0
   -1.8243   -0.0641   -1.4461 H   0  0  0  0  0  0
   -3.4591   -1.1997   -1.8449 H   0  0  0  0  0  0
   -4.7048   -0.5288   -2.9517 H   0  0  0  0  0  0
   -4.9796   -0.5156   -1.1766 H   0  0  0  0  0  0
    0.2078    1.3856   -2.7584 H   0  0  0  0  0  0
   -1.7374    1.7197   -4.3092 H   0  0  0  0  0  0
    1.0973    3.7246   -3.1064 H   0  0  0  0  0  0
   -0.3437    4.3973   -2.2712 H   0  0  0  0  0  0
    3.0378    0.7507    0.1888 H   0  0  0  0  0  0
    1.6819    4.5629    1.3468 H   0  0  0  0  0  0
    3.1739    3.8916    0.6053 H   0  0  0  0  0  0
    1.6265    7.3412   -0.5869 H   0  0  0  0  0  0
    1.3082    9.7077    0.4918 H   0  0  0  0  0  0
    1.9491    9.9036    2.1584 H   0  0  0  0  0  0
    2.9275   11.5917    0.5888 H   0  0  0  0  0  0
    4.1837   10.4873    1.2437 H   0  0  0  0  0  0
    3.1402    9.2924   -0.8866 H   0  0  0  0  0  0
    5.6815   10.9725   -0.9276 H   0  0  0  0  0  0
    5.5081    9.4814    0.0588 H   0  0  0  0  0  0
    6.7853    9.0456   -1.9528 H   0  0  0  0  0  0
    5.2223    8.1625   -2.0152 H   0  0  0  0  0  0
    4.4868    8.1866   -4.7559 H   0  0  0  0  0  0
    5.1433   11.3446   -7.1849 H   0  0  0  0  0  0
    5.2738    9.5698   -7.4290 H   0  0  0  0  0  0
    4.7669   12.0929  -10.4045 H   0  0  0  0  0  0
    1.2518    8.9111   -7.5837 H   0  0  0  0  0  0
    0.9548   10.6645   -7.8365 H   0  0  0  0  0  0
    1.0323   10.3109  -10.3449 H   0  0  0  0  0  0
   -1.1573   10.0388   -9.1698 H   0  0  0  0  0  0
    1.4400    7.3820   -9.4574 H   0  0  0  0  0  0
    1.5946    8.5289  -12.3173 H   0  0  0  0  0  0
    0.6591    7.4829  -13.8319 H   0  0  0  0  0  0
   -0.8477    6.5932  -13.4261 H   0  0  0  0  0  0
    0.6953    5.6977  -13.6355 H   0  0  0  0  0  0
    3.4274    9.4402  -10.7427 H   0  0  0  0  0  0
    3.6955    6.9894  -11.5693 H   0  0  0  0  0  0
    2.8433    5.7598   -9.6138 H   0  0  0  0  0  0
    5.7156    7.9770   -9.3746 H   0  0  0  0  0  0
    5.1371    9.9132  -10.8337 H   0  0  0  0  0  0
    6.2523    5.7583  -10.3475 H   0  0  0  0  0  0
    6.2919    6.5063  -11.9802 H   0  0  0  0  0  0
    8.6304    6.4510  -10.9607 H   0  0  0  0  0  0
    3.5652   10.2731   -2.8787 H   0  0  0  0  0  0
    1.9998   10.1838   -2.0023 H   0  0  0  0  0  0
    3.7944   12.6530   -2.0250 H   0  0  0  0  0  0
    2.4461   12.3661   -3.1766 H   0  0  0  0  0  0
    0.1084   11.9829   -2.1638 H   0  0  0  0  0  0
   -1.7246   13.5449    0.8569 H   0  0  0  0  0  0
   -1.9415   14.3783   -0.7195 H   0  0  0  0  0  0
   -4.9649   14.1330    1.7209 H   0  0  0  0  0  0
   -3.4991   10.9260   -2.5157 H   0  0  0  0  0  0
   -3.8090   10.2744   -0.8707 H   0  0  0  0  0  0
   -6.1109   11.2062   -0.9049 H   0  0  0  0  0  0
   -5.8156    8.9870   -1.8777 H   0  0  0  0  0  0
   -5.2541   12.1248   -3.7701 H   0  0  0  0  0  0
   -7.8766   12.8091   -2.3331 H   0  0  0  0  0  0
   -9.6260   12.7608   -3.4397 H   0  0  0  0  0  0
   -9.7255   11.5876   -4.7964 H   0  0  0  0  0  0
   -9.4321   13.3275   -5.1332 H   0  0  0  0  0  0
   -5.7510   13.8024   -1.1630 H   0  0  0  0  0  0
   -6.4594   14.9558   -3.3771 H   0  0  0  0  0  0
   -4.7967   13.8925   -4.9018 H   0  0  0  0  0  0
   -3.7932   15.9037   -2.0497 H   0  0  0  0  0  0
   -5.2623   15.2550   -0.1878 H   0  0  0  0  0  0
   -4.6529   17.2883   -3.9728 H   0  0  0  0  0  0
   -6.2179   17.4786   -3.1119 H   0  0  0  0  0  0
   -4.6771   19.4755   -2.6263 H   0  0  0  0  0  0
  1  2  1  0  0  0
  1 89  1  0  0  0
  2  3  1  0  0  0
  2 90  1  0  0  0
  2 91  1  0  0  0
  3  4  1  0  0  0
  3  5  1  0  0  0
  3 92  1  0  0  0
  4 93  1  0  0  0
  5  6  1  0  0  0
  5  7  1  0  0  0
  5 94  1  0  0  0
  6 95  1  0  0  0
  7  8  1  0  0  0
  7  9  1  0  0  0
  7 96  1  0  0  0
  8 17  1  0  0  0
  9 10  1  0  0  0
  9 14  1  0  0  0
  9 97  1  0  0  0
 10 11  1  0  0  0
 10 98  1  0  0  0
 11 12  2  0  0  0
 11 13  1  0  0  0
 13 99  1  0  0  0
 13100  1  0  0  0
 13101  1  0  0  0
 14 15  1  0  0  0
 14 16  1  0  0  0
 14102  1  0  0  0
 15103  1  0  0  0
 16 17  1  0  0  0
 16104  1  0  0  0
 16105  1  0  0  0
 17 18  1  0  0  0
 17 21  1  0  0  0
 18 19  1  0  0  0
 18 20  2  0  0  0
 19106  1  0  0  0
 21 22  1  0  0  0
 22 23  1  0  0  0
 22107  1  0  0  0
 22108  1  0  0  0
 23 24  2  0  0  0
 23 25  1  0  0  0
 24 27  1  0  0  0
 24109  1  0  0  0
 25 26  2  0  0  0
 26 27  1  0  0  0
 27 28  1  0  0  0
 28 29  1  0  0  0
 28110  1  0  0  0
 28111  1  0  0  0
 29 30  1  0  0  0
 29112  1  0  0  0
 29113  1  0  0  0
 30 31  1  0  0  0
 30 60  1  0  0  0
 30114  1  0  0  0
 31 32  1  0  0  0
 31115  1  0  0  0
 31116  1  0  0  0
 32 33  1  0  0  0
 32117  1  0  0  0
 32118  1  0  0  0
 33 34  1  0  0  0
 33 35  1  0  0  0
 34 37  2  0  0  0
 34119  1  0  0  0
 35 36  2  0  0  0
 36 37  1  0  0  0
 37 38  1  0  0  0
 38 39  1  0  0  0
 38120  1  0  0  0
 38121  1  0  0  0
 39 40  1  0  0  0
 40 41  1  0  0  0
 40 44  1  0  0  0
 40 45  1  0  0  0
 41 42  2  0  0  0
 41 43  1  0  0  0
 43122  1  0  0  0
 44 53  1  0  0  0
 45 46  1  0  0  0
 45123  1  0  0  0
 45124  1  0  0  0
 46 47  1  0  0  0
 46 48  1  0  0  0
 46125  1  0  0  0
 47126  1  0  0  0
 48 49  1  0  0  0
 48 53  1  0  0  0
 48127  1  0  0  0
 49 50  1  0  0  0
 49128  1  0  0  0
 50 51  2  0  0  0
 50 52  1  0  0  0
 52129  1  0  0  0
 52130  1  0  0  0
 52131  1  0  0  0
 53 54  1  0  0  0
 53132  1  0  0  0
 54 55  1  0  0  0
 54 56  1  0  0  0
 54133  1  0  0  0
 55134  1  0  0  0
 56 57  1  0  0  0
 56 58  1  0  0  0
 56135  1  0  0  0
 57136  1  0  0  0
 58 59  1  0  0  0
 58137  1  0  0  0
 58138  1  0  0  0
 59139  1  0  0  0
 60 61  1  0  0  0
 60140  1  0  0  0
 60141  1  0  0  0
 61 62  1  0  0  0
 61142  1  0  0  0
 61143  1  0  0  0
 62 63  1  0  0  0
 62 64  1  0  0  0
 63 66  2  0  0  0
 63144  1  0  0  0
 64 65  2  0  0  0
 65 66  1  0  0  0
 66 67  1  0  0  0
 67 68  1  0  0  0
 67145  1  0  0  0
 67146  1  0  0  0
 68 69  1  0  0  0
 69 70  1  0  0  0
 69 73  1  0  0  0
 69 74  1  0  0  0
 70 71  1  0  0  0
 70 72  2  0  0  0
 71147  1  0  0  0
 73 82  1  0  0  0
 74 75  1  0  0  0
 74148  1  0  0  0
 74149  1  0  0  0
 75 76  1  0  0  0
 75 77  1  0  0  0
 75150  1  0  0  0
 76151  1  0  0  0
 77 78  1  0  0  0
 77 82  1  0  0  0
 77152  1  0  0  0
 78 79  1  0  0  0
 78153  1  0  0  0
 79 80  2  0  0  0
 79 81  1  0  0  0
 81154  1  0  0  0
 81155  1  0  0  0
 81156  1  0  0  0
 82 83  1  0  0  0
 82157  1  0  0  0
 83 84  1  0  0  0
 83 85  1  0  0  0
 83158  1  0  0  0
 84159  1  0  0  0
 85 86  1  0  0  0
 85 87  1  0  0  0
 85160  1  0  0  0
 86161  1  0  0  0
 87 88  1  0  0  0
 87162  1  0  0  0
 87163  1  0  0  0
 88164  1  0  0  0
M  CHG  1  30   1
M  END
> <s_m_source_file>
../4xqa_ligand.sdf

> <i_m_source_file_index>
1

> <s_epik_input>
W09IXVtDSDJdW0NAQEhdKFtPSF0pW0NAQEhdKFtPSF0pW0NAQEhdKFtDQEBIXShbQ0BASF0oW09IXSlbQ0gyXTEpW05IXUMoPU8pW0NIM10pT1tDQF0xKEMoPU8pW09IXSlPW0NIMl1jMltjSF1uKG5uMilbQ0gyXVtDSDJdW05IK10oW0NIMl1bQ0gyXW4zW2NIXWMobm4zKVtDSDJdT1tDQEBdNChDKD1PKVtPSF0pT1tDQEhdKFtDQEBIXShbQ0BIXShbQ0gyXTQpW09IXSlbTkhdQyg9TylbQ0gzXSlbQ0BIXShbT0hdKVtDQEhdKFtPSF0pW0NIMl1bT0hdKVtDSDJdW0NIMl1uNVtjSF1jKG5uNSlbQ0gyXU9bQ0BAXTYoQyg9TylbT0hdKU9bQ0BIXShbQ0BASF0oW0NASF0oW0NIMl02KVtPSF0pW05IXUMoPU8pW0NIM10pW0NASF0oW09IXSlbQ0BIXShbT0hdKVtDSDJdW09IXQ==

> <s_epik_cmdline>
J2VwaWtfYXBwJywgJy1pbWFlJywgJ2xpZ2FuZF9wcm8ubWFlJywgJy1vbWFlJywgJ2xpZ2FuZF9wcmVwLm1hZScsICctbXMnLCAnMScsICctcGgnLCAnNycsICctcGh0JywgJzAuNScsICctbnQn

> <s_epik_pKa_notes>
Molecule size exceeds maximum supported for generating protonation states

$$$$
