4xqb_ligand
                    3D
 Schrodinger Suite 2020-3.
173178  0  0  1  0            999 V2000
  -24.1140   10.2700  -34.2230 O   0  0  0  0  0  0
  -25.3420    9.5900  -34.4840 C   0  0  0  0  0  0
  -26.1480    9.4800  -33.1880 C   0  0  1  0  0  0
  -27.4180    8.8590  -33.4220 O   0  0  0  0  0  0
  -25.3840    8.6960  -32.1200 C   0  0  1  0  0  0
  -24.2270    9.4500  -31.7860 O   0  0  0  0  0  0
  -26.3410    8.6650  -30.9460 C   0  0  2  0  0  0
  -26.5950   10.0130  -30.5110 O   0  0  0  0  0  0
  -25.7180    7.8940  -29.7690 C   0  0  2  0  0  0
  -25.3040    6.5430  -30.1790 N   0  0  0  0  0  0
  -24.1120    5.9970  -29.8750 C   0  0  0  0  0  0
  -23.1590    6.6060  -29.3830 O   0  0  0  0  0  0
  -23.9310    4.5850  -30.4190 C   0  0  0  0  0  0
  -26.7110    7.8800  -28.5820 C   0  0  1  0  0  0
  -26.1400    7.2520  -27.4130 O   0  0  0  0  0  0
  -26.9450    9.3220  -28.2300 C   0  0  0  0  0  0
  -27.5130   10.0730  -29.4150 C   0  0  2  0  0  0
  -28.9310    9.5940  -29.8810 C   0  0  0  0  0  0
  -29.8180    9.5880  -29.0120 O   0  0  0  0  0  0
  -29.1430    9.3580  -31.1000 O   0  0  0  0  0  0
  -27.7010   11.4160  -29.0120 O   0  0  0  0  0  0
  -28.1920   12.3480  -29.9680 C   0  0  0  0  0  0
  -27.9860   13.7310  -29.3300 C   0  0  0  0  0  0
  -28.5260   14.8080  -30.2670 C   0  0  0  0  0  0
  -29.5510   15.6100  -30.0170 C   0  0  0  0  0  0
  -28.0530   15.0740  -31.4710 N   0  0  0  0  0  0
  -28.7440   15.9860  -31.9310 N   0  0  0  0  0  0
  -29.6510   16.3590  -31.1160 N   0  0  0  0  0  0
  -30.5240   17.3460  -31.4210 C   0  0  0  0  0  0
  -29.7590   18.6770  -31.4950 C   0  0  0  0  0  0
  -29.2390   19.0450  -30.3210 N   0  3  0  0  0  0
  -28.3670   20.1830  -30.6180 C   0  0  0  0  0  0
  -27.0530   19.7070  -31.2410 C   0  0  0  0  0  0
  -26.3010   18.8540  -30.2550 N   0  0  0  0  0  0
  -25.8600   17.6020  -30.3650 C   0  0  0  0  0  0
  -25.9680   19.3010  -29.0970 N   0  0  0  0  0  0
  -25.3340   18.4130  -28.4320 N   0  0  0  0  0  0
  -25.2590   17.3390  -29.2090 C   0  0  0  0  0  0
  -24.6600   16.1860  -28.8970 C   0  0  0  0  0  0
  -23.1520   16.3970  -28.6410 C   0  0  0  0  0  0
  -22.5860   15.1850  -28.3460 O   0  0  0  0  0  0
  -21.1770   15.2010  -28.0020 C   0  0  1  0  0  0
  -20.4850   15.7180  -29.2910 C   0  0  0  0  0  0
  -20.7030   15.0510  -30.3230 O   0  0  0  0  0  0
  -19.8460   16.7940  -29.2720 O   0  0  0  0  0  0
  -20.9660   16.0270  -26.8550 O   0  0  0  0  0  0
  -20.7100   13.7800  -27.6800 C   0  0  0  0  0  0
  -19.2350   13.7520  -27.3060 C   0  0  2  0  0  0
  -18.9370   12.3850  -26.9910 O   0  0  0  0  0  0
  -19.1350   14.6650  -26.0650 C   0  0  1  0  0  0
  -17.7450   14.6420  -25.5330 N   0  0  0  0  0  0
  -17.3550   13.8630  -24.4980 C   0  0  0  0  0  0
  -15.8770   13.9830  -24.0970 C   0  0  0  0  0  0
  -18.1420   13.2900  -23.7410 O   0  0  0  0  0  0
  -19.6040   16.0880  -26.4190 C   0  0  2  0  0  0
  -19.5260   16.9900  -25.2050 C   0  0  2  0  0  0
  -20.4690   16.4820  -24.2590 O   0  0  0  0  0  0
  -19.9770   18.3830  -25.6210 C   0  0  2  0  0  0
  -18.9470   18.8900  -26.4660 O   0  0  0  0  0  0
  -20.0540   19.3060  -24.4020 C   0  0  0  0  0  0
  -18.7860   19.4160  -23.7650 O   0  0  0  0  0  0
  -30.3620   19.5050  -29.5060 C   0  0  0  0  0  0
  -29.9020   19.7960  -28.0730 C   0  0  0  0  0  0
  -29.4200   18.5480  -27.3940 N   0  0  0  0  0  0
  -28.2550   18.2660  -26.8110 C   0  0  0  0  0  0
  -30.1930   17.5450  -27.2760 N   0  0  0  0  0  0
  -29.6260   16.6010  -26.6690 N   0  0  0  0  0  0
  -28.4080   17.0270  -26.3650 C   0  0  0  0  0  0
  -27.3540   16.2200  -25.6100 C   0  0  0  0  0  0
  -27.8510   15.8850  -24.1960 C   0  0  0  0  0  0
  -26.7820   15.1720  -23.5840 O   0  0  0  0  0  0
  -27.0450   14.5010  -22.3560 C   0  0  1  0  0  0
  -27.4700   15.6390  -21.3590 C   0  0  0  0  0  0
  -28.6750   15.7380  -21.0070 O   0  0  0  0  0  0
  -26.5890   16.4600  -21.0400 O   0  0  0  0  0  0
  -28.0990   13.5730  -22.5100 O   0  0  0  0  0  0
  -25.7930   13.7570  -21.9380 C   0  0  0  0  0  0
  -25.9940   13.0150  -20.6360 C   0  0  2  0  0  0
  -24.7600   12.2850  -20.4230 O   0  0  0  0  0  0
  -27.1370   12.0230  -20.9220 C   0  0  1  0  0  0
  -27.4100   11.2870  -19.6690 N   0  0  0  0  0  0
  -27.0970    9.9850  -19.4970 C   0  0  0  0  0  0
  -26.7060    9.2500  -20.4040 O   0  0  0  0  0  0
  -27.4580    9.3980  -18.1270 C   0  0  0  0  0  0
  -28.3790   12.8630  -21.3160 C   0  0  2  0  0  0
  -29.5350   11.9270  -21.6150 C   0  0  2  0  0  0
  -29.1690   11.1230  -22.7450 O   0  0  0  0  0  0
  -30.6930   12.8430  -22.0340 C   0  0  2  0  0  0
  -30.9900   13.7340  -20.9620 O   0  0  0  0  0  0
  -31.9650   12.0620  -22.3940 C   0  0  0  0  0  0
  -32.3990   11.3210  -21.2550 O   0  0  0  0  0  0
  -23.3977   10.4446  -35.0394 H   0  0  0  0  0  0
  -25.9216   10.1533  -35.2302 H   0  0  0  0  0  0
  -25.1283    8.5824  -34.8701 H   0  0  0  0  0  0
  -26.3825   10.4922  -32.8269 H   0  0  0  0  0  0
  -28.1106    9.2855  -34.1625 H   0  0  0  0  0  0
  -25.0121    7.7023  -32.4101 H   0  0  0  0  0  0
  -23.4218    9.5780  -32.5244 H   0  0  0  0  0  0
  -27.2987    8.2259  -31.2623 H   0  0  0  0  0  0
  -24.7730    8.3610  -29.4545 H   0  0  0  0  0  0
  -25.9860    5.9146  -30.7706 H   0  0  0  0  0  0
  -24.8905    4.2176  -30.8118 H   0  0  0  0  0  0
  -23.5875    3.9221  -29.6112 H   0  0  0  0  0  0
  -23.1843    4.5962  -31.2266 H   0  0  0  0  0  0
  -27.6243    7.3114  -28.8114 H   0  0  0  0  0  0
  -25.8814    6.1830  -27.4339 H   0  0  0  0  0  0
  -27.6567    9.3844  -27.3936 H   0  0  0  0  0  0
  -25.9924    9.7870  -27.9362 H   0  0  0  0  0  0
  -30.1369    9.0217  -31.4304 H   0  0  0  0  0  0
  -27.6232   12.2470  -30.9041 H   0  0  0  0  0  0
  -29.2561   12.1480  -30.1621 H   0  0  0  0  0  0
  -28.5229   13.7760  -28.3710 H   0  0  0  0  0  0
  -26.9127   13.8991  -29.1575 H   0  0  0  0  0  0
  -30.1695   15.6486  -29.1203 H   0  0  0  0  0  0
  -30.9950   17.1319  -32.3917 H   0  0  0  0  0  0
  -31.2988   17.4038  -30.6423 H   0  0  0  0  0  0
  -28.9310   18.5846  -32.2133 H   0  0  0  0  0  0
  -30.4418   19.4746  -31.8231 H   0  0  0  0  0  0
  -28.7066   18.1957  -29.8680 H   0  0  0  0  0  0
  -28.8725   20.8576  -31.3247 H   0  0  0  0  0  0
  -28.1439   20.7265  -29.6881 H   0  0  0  0  0  0
  -27.2680   19.1160  -32.1435 H   0  0  0  0  0  0
  -26.4384   20.5784  -31.5111 H   0  0  0  0  0  0
  -25.9688   16.9353  -31.2205 H   0  0  0  0  0  0
  -25.1172   15.7697  -27.9872 H   0  0  0  0  0  0
  -24.7805   15.4739  -29.7267 H   0  0  0  0  0  0
  -22.6830   16.8205  -29.5414 H   0  0  0  0  0  0
  -23.0167   17.0893  -27.7969 H   0  0  0  0  0  0
  -19.3561   17.1590  -30.1868 H   0  0  0  0  0  0
  -21.2922   13.3855  -26.8342 H   0  0  0  0  0  0
  -20.8594   13.1367  -28.5597 H   0  0  0  0  0  0
  -18.5191   14.0352  -28.0917 H   0  0  0  0  0  0
  -18.9690   11.6192  -27.7800 H   0  0  0  0  0  0
  -19.7671   14.2900  -25.2466 H   0  0  0  0  0  0
  -16.9724   15.2814  -25.9850 H   0  0  0  0  0  0
  -15.3260   14.5189  -24.8839 H   0  0  0  0  0  0
  -15.4490   12.9778  -23.9693 H   0  0  0  0  0  0
  -15.7978   14.5382  -23.1507 H   0  0  0  0  0  0
  -19.0108   16.5116  -27.2429 H   0  0  0  0  0  0
  -18.5285   17.0015  -24.7415 H   0  0  0  0  0  0
  -20.3295   15.4800  -23.8272 H   0  0  0  0  0  0
  -20.9354   18.3577  -26.1603 H   0  0  0  0  0  0
  -18.7111   18.3806  -27.4120 H   0  0  0  0  0  0
  -20.3769   20.3081  -24.7207 H   0  0  0  0  0  0
  -20.7776   18.9001  -23.6798 H   0  0  0  0  0  0
  -18.6729   20.0454  -22.8700 H   0  0  0  0  0  0
  -30.7782   20.4254  -29.9414 H   0  0  0  0  0  0
  -31.1395   18.7272  -29.4806 H   0  0  0  0  0  0
  -29.0784   20.5249  -28.0932 H   0  0  0  0  0  0
  -30.7422   20.2080  -27.4947 H   0  0  0  0  0  0
  -27.3779   18.9069  -26.7215 H   0  0  0  0  0  0
  -27.1522   15.2837  -26.1509 H   0  0  0  0  0  0
  -26.4269   16.8072  -25.5350 H   0  0  0  0  0  0
  -28.0768   16.8166  -23.6564 H   0  0  0  0  0  0
  -28.7608   15.2704  -24.2631 H   0  0  0  0  0  0
  -28.9808   16.5317  -20.3095 H   0  0  0  0  0  0
  -25.5237   13.0268  -22.7153 H   0  0  0  0  0  0
  -24.9682   14.4726  -21.8056 H   0  0  0  0  0  0
  -26.1814   13.6441  -19.7533 H   0  0  0  0  0  0
  -23.8296   12.8295  -20.2042 H   0  0  0  0  0  0
  -26.8857   11.2825  -21.6956 H   0  0  0  0  0  0
  -27.8894   11.8007  -18.8227 H   0  0  0  0  0  0
  -27.7831   10.2066  -17.4558 H   0  0  0  0  0  0
  -26.5768    8.8979  -17.6987 H   0  0  0  0  0  0
  -28.2729    8.6685  -18.2439 H   0  0  0  0  0  0
  -28.6347   13.6079  -20.5481 H   0  0  0  0  0  0
  -29.7746   11.2372  -20.7923 H   0  0  0  0  0  0
  -28.3520   10.3916  -22.6581 H   0  0  0  0  0  0
  -30.3809   13.4551  -22.8930 H   0  0  0  0  0  0
  -30.2037   14.3873  -20.5559 H   0  0  0  0  0  0
  -32.7535   12.7659  -22.6987 H   0  0  0  0  0  0
  -31.7493   11.3718  -23.2229 H   0  0  0  0  0  0
  -33.3011   10.6946  -21.3174 H   0  0  0  0  0  0
  1  2  1  0  0  0
  1 92  1  0  0  0
  2  3  1  0  0  0
  2 93  1  0  0  0
  2 94  1  0  0  0
  3  4  1  0  0  0
  3  5  1  0  0  0
  3 95  1  0  0  0
  4 96  1  0  0  0
  5  6  1  0  0  0
  5  7  1  0  0  0
  5 97  1  0  0  0
  6 98  1  0  0  0
  7  8  1  0  0  0
  7  9  1  0  0  0
  7 99  1  0  0  0
  8 17  1  0  0  0
  9 10  1  0  0  0
  9 14  1  0  0  0
  9100  1  0  0  0
 10 11  1  0  0  0
 10101  1  0  0  0
 11 12  2  0  0  0
 11 13  1  0  0  0
 13102  1  0  0  0
 13103  1  0  0  0
 13104  1  0  0  0
 14 15  1  0  0  0
 14 16  1  0  0  0
 14105  1  0  0  0
 15106  1  0  0  0
 16 17  1  0  0  0
 16107  1  0  0  0
 16108  1  0  0  0
 17 18  1  0  0  0
 17 21  1  0  0  0
 18 19  2  0  0  0
 18 20  1  0  0  0
 20109  1  0  0  0
 21 22  1  0  0  0
 22 23  1  0  0  0
 22110  1  0  0  0
 22111  1  0  0  0
 23 24  1  0  0  0
 23112  1  0  0  0
 23113  1  0  0  0
 24 25  2  0  0  0
 24 26  1  0  0  0
 25 28  1  0  0  0
 25114  1  0  0  0
 26 27  2  0  0  0
 27 28  1  0  0  0
 28 29  1  0  0  0
 29 30  1  0  0  0
 29115  1  0  0  0
 29116  1  0  0  0
 30 31  1  0  0  0
 30117  1  0  0  0
 30118  1  0  0  0
 31 32  1  0  0  0
 31 62  1  0  0  0
 31119  1  0  0  0
 32 33  1  0  0  0
 32120  1  0  0  0
 32121  1  0  0  0
 33 34  1  0  0  0
 33122  1  0  0  0
 33123  1  0  0  0
 34 35  1  0  0  0
 34 36  1  0  0  0
 35 38  2  0  0  0
 35124  1  0  0  0
 36 37  2  0  0  0
 37 38  1  0  0  0
 38 39  1  0  0  0
 39 40  1  0  0  0
 39125  1  0  0  0
 39126  1  0  0  0
 40 41  1  0  0  0
 40127  1  0  0  0
 40128  1  0  0  0
 41 42  1  0  0  0
 42 43  1  0  0  0
 42 46  1  0  0  0
 42 47  1  0  0  0
 43 44  2  0  0  0
 43 45  1  0  0  0
 45129  1  0  0  0
 46 55  1  0  0  0
 47 48  1  0  0  0
 47130  1  0  0  0
 47131  1  0  0  0
 48 49  1  0  0  0
 48 50  1  0  0  0
 48132  1  0  0  0
 49133  1  0  0  0
 50 51  1  0  0  0
 50 55  1  0  0  0
 50134  1  0  0  0
 51 52  1  0  0  0
 51135  1  0  0  0
 52 53  1  0  0  0
 52 54  2  0  0  0
 53136  1  0  0  0
 53137  1  0  0  0
 53138  1  0  0  0
 55 56  1  0  0  0
 55139  1  0  0  0
 56 57  1  0  0  0
 56 58  1  0  0  0
 56140  1  0  0  0
 57141  1  0  0  0
 58 59  1  0  0  0
 58 60  1  0  0  0
 58142  1  0  0  0
 59143  1  0  0  0
 60 61  1  0  0  0
 60144  1  0  0  0
 60145  1  0  0  0
 61146  1  0  0  0
 62 63  1  0  0  0
 62147  1  0  0  0
 62148  1  0  0  0
 63 64  1  0  0  0
 63149  1  0  0  0
 63150  1  0  0  0
 64 65  1  0  0  0
 64 66  1  0  0  0
 65 68  2  0  0  0
 65151  1  0  0  0
 66 67  2  0  0  0
 67 68  1  0  0  0
 68 69  1  0  0  0
 69 70  1  0  0  0
 69152  1  0  0  0
 69153  1  0  0  0
 70 71  1  0  0  0
 70154  1  0  0  0
 70155  1  0  0  0
 71 72  1  0  0  0
 72 73  1  0  0  0
 72 76  1  0  0  0
 72 77  1  0  0  0
 73 74  1  0  0  0
 73 75  2  0  0  0
 74156  1  0  0  0
 76 85  1  0  0  0
 77 78  1  0  0  0
 77157  1  0  0  0
 77158  1  0  0  0
 78 79  1  0  0  0
 78 80  1  0  0  0
 78159  1  0  0  0
 79160  1  0  0  0
 80 81  1  0  0  0
 80 85  1  0  0  0
 80161  1  0  0  0
 81 82  1  0  0  0
 81162  1  0  0  0
 82 83  2  0  0  0
 82 84  1  0  0  0
 84163  1  0  0  0
 84164  1  0  0  0
 84165  1  0  0  0
 85 86  1  0  0  0
 85166  1  0  0  0
 86 87  1  0  0  0
 86 88  1  0  0  0
 86167  1  0  0  0
 87168  1  0  0  0
 88 89  1  0  0  0
 88 90  1  0  0  0
 88169  1  0  0  0
 89170  1  0  0  0
 90 91  1  0  0  0
 90171  1  0  0  0
 90172  1  0  0  0
 91173  1  0  0  0
M  CHG  1  31   1
M  END
> <s_m_source_file>
../4xqb_ligand.sdf

> <i_m_source_file_index>
1

> <s_epik_input>
W09IXVtDSDJdW0NAQEhdKFtPSF0pW0NAQEhdKFtPSF0pW0NAQEhdKFtDQEBIXShbQ0BASF0oW09IXSlbQ0gyXTEpW05IXUMoPU8pW0NIM10pT1tDQF0xKEMoPU8pW09IXSlPW0NIMl1bQ0gyXWMyW2NIXW4obm4yKVtDSDJdW0NIMl1bTkgrXShbQ0gyXVtDSDJdbjNbY0hdYyhubjMpW0NIMl1bQ0gyXU9bQ0BAXTQoQyg9TylbT0hdKU9bQ0BIXShbQ0BASF0oW0NASF0oW0NIMl00KVtPSF0pW05IXUMoPU8pW0NIM10pW0NASF0oW09IXSlbQ0BIXShbT0hdKVtDSDJdW09IXSlbQ0gyXVtDSDJdbjVbY0hdYyhubjUpW0NIMl1bQ0gyXU9bQ0BAXTYoQyg9TylbT0hdKU9bQ0BIXShbQ0BASF0oW0NASF0oW0NIMl02KVtPSF0pW05IXUMoPU8pW0NIM10pW0NASF0oW09IXSlbQ0BIXShbT0hdKVtDSDJdW09IXQ==

> <s_epik_cmdline>
J2VwaWtfYXBwJywgJy1pbWFlJywgJ2xpZ2FuZF9wcm8ubWFlJywgJy1vbWFlJywgJ2xpZ2FuZF9wcmVwLm1hZScsICctbXMnLCAnMScsICctcGgnLCAnNycsICctcGh0JywgJzAuNScsICctbnQn

> <s_epik_pKa_notes>
Molecule size exceeds maximum supported for generating protonation states

$$$$
