4xqu_ligand
                    3D
 Schrodinger Suite 2020-3.
 87 89  0  0  1  0            999 V2000
    5.5980   63.3970  142.9590 C   0  0  0  0  0  0
    5.9330   64.6800  142.2270 C   0  0  1  0  0  0
    5.7300   65.8890  143.1520 C   0  0  0  0  0  0
    6.7930   65.9440  144.2520 C   0  0  1  0  0  0
    8.2130   65.8530  143.6990 C   0  0  2  0  0  0
    8.3600   64.7090  142.6930 C   0  0  2  0  0  0
    9.6800   64.7930  141.9240 C   0  0  1  0  0  0
   10.0020   63.4930  141.1810 C   0  0  1  0  0  0
   11.4390   63.4870  140.6710 C   0  0  0  0  0  0
   10.1590   66.4760  145.0500 C   0  0  0  0  0  0
    9.9220   67.5410  146.0800 C   0  0  0  0  0  0
    9.1330   65.6590  144.8080 N   0  0  0  0  0  0
    6.2830   62.3730  142.7390 O   0  5  0  0  0  0
    4.6220   63.3900  143.7420 O   0  0  0  0  0  0
    6.6570   67.1560  145.0030 O   0  0  0  0  0  0
    7.2830   64.6720  141.7400 O   0  0  0  0  0  0
    9.6210   65.8830  140.9930 O   0  0  0  0  0  0
    9.8150   62.3630  142.0440 O   0  0  0  0  0  0
   11.6930   62.2690  139.9600 O   0  0  0  0  0  0
   11.2290   66.3610  144.4740 O   0  0  0  0  0  0
    3.8810   66.2630  137.8980 C   0  0  1  0  0  0
    3.8620   65.4250  139.1820 C   0  0  1  0  0  0
    5.0580   65.6980  140.1020 C   0  0  2  0  0  0
    6.3800   65.6910  139.3210 C   0  0  2  0  0  0
    6.2980   66.5310  138.0450 C   0  0  1  0  0  0
    7.5800   66.4310  137.2200 C   0  0  0  0  0  0
    2.6370   65.6220  139.9050 O   0  0  0  0  0  0
    5.0160   64.6890  141.1230 O   0  0  0  0  0  0
    6.7510   64.3440  139.0030 O   0  0  0  0  0  0
    5.1640   66.1400  137.2540 O   0  0  0  0  0  0
    7.3040   66.6680  135.8340 O   0  0  0  0  0  0
    0.2580   68.9830  135.7220 C   0  0  2  0  0  0
    1.0000   68.1430  134.7190 C   0  0  1  0  0  0
    1.6360   67.0070  135.4880 C   0  0  2  0  0  0
    2.5730   67.4870  136.5780 C   0  0  1  0  0  0
    1.9660   68.6710  137.3530 C   0  0  1  0  0  0
    2.9770   69.4560  138.1850 C   0  0  0  0  0  0
    0.1610   68.1630  132.5250 C   0  0  0  0  0  0
   -0.0160   69.6500  132.4730 C   0  0  0  0  0  0
    0.0920   67.6380  133.7310 N   0  0  0  0  0  0
   -0.5410   69.9990  135.1030 O   0  0  0  0  0  0
    2.3440   66.1430  134.6010 O   0  0  0  0  0  0
    2.5240   66.3380  137.4450 O   0  0  0  0  0  0
    1.2770   69.5940  136.5080 O   0  0  0  0  0  0
    4.2470   68.8000  138.2470 O   0  0  0  0  0  0
    0.3770   67.4860  131.5400 O   0  0  0  0  0  0
    5.7926   66.8159  142.5630 H   0  0  0  0  0  0
    4.7409   65.8238  143.6289 H   0  0  0  0  0  0
    6.6211   65.1146  144.9538 H   0  0  0  0  0  0
    8.4803   66.7973  143.2022 H   0  0  0  0  0  0
    8.2842   63.7685  143.2584 H   0  0  0  0  0  0
   10.4975   65.0204  142.6240 H   0  0  0  0  0  0
    9.2958   63.3682  140.3469 H   0  0  0  0  0  0
   11.5922   64.3422  139.9964 H   0  0  0  0  0  0
   12.1307   63.5635  141.5228 H   0  0  0  0  0  0
    8.8948   67.4572  146.4644 H   0  0  0  0  0  0
   10.0626   68.5314  145.6224 H   0  0  0  0  0  0
   10.6349   67.4152  146.9083 H   0  0  0  0  0  0
    8.9982   64.8081  145.4920 H   0  0  0  0  0  0
    5.6980   67.4010  145.4829 H   0  0  0  0  0  0
    9.3996   66.8997  141.3498 H   0  0  0  0  0  0
    8.8375   62.1880  142.5171 H   0  0  0  0  0  0
   12.6835   62.0867  139.5176 H   0  0  0  0  0  0
    3.9934   67.3337  137.6720 H   0  0  0  0  0  0
    3.8701   64.3643  138.8909 H   0  0  0  0  0  0
    4.9947   66.6693  140.6144 H   0  0  0  0  0  0
    7.1879   66.0821  139.9569 H   0  0  0  0  0  0
    6.1164   67.5821  138.3135 H   0  0  0  0  0  0
    8.3031   67.1806  137.5738 H   0  0  0  0  0  0
    8.0105   65.4249  137.3319 H   0  0  0  0  0  0
    1.6708   65.4701  139.4017 H   0  0  0  0  0  0
    6.8572   63.5988  139.8051 H   0  0  0  0  0  0
    8.1199   66.6336  135.0970 H   0  0  0  0  0  0
   -0.4485   68.4051  136.3359 H   0  0  0  0  0  0
    1.7380   68.7260  134.1484 H   0  0  0  0  0  0
    0.8316   66.4075  135.9392 H   0  0  0  0  0  0
    3.5779   67.7677  136.2298 H   0  0  0  0  0  0
    1.1954   68.2363  138.0066 H   0  0  0  0  0  0
    3.1261   70.4502  137.7385 H   0  0  0  0  0  0
    2.5986   69.5682  139.2118 H   0  0  0  0  0  0
   -0.1996   70.0331  133.4877 H   0  0  0  0  0  0
   -0.8727   69.8949  131.8280 H   0  0  0  0  0  0
    0.8944   70.1136  132.0652 H   0  0  0  0  0  0
   -0.6227   66.8447  133.9952 H   0  0  0  0  0  0
   -1.3827   69.7171  134.4534 H   0  0  0  0  0  0
    1.8259   65.6932  133.7412 H   0  0  0  0  0  0
    5.0732   69.2535  138.8143 H   0  0  0  0  0  0
  1  2  1  0  0  0
  1 13  1  0  0  0
  1 14  2  0  0  0
  2  3  1  0  0  0
  2 16  1  0  0  0
  2 28  1  0  0  0
  3  4  1  0  0  0
  3 47  1  0  0  0
  3 48  1  0  0  0
  4  5  1  0  0  0
  4 15  1  0  0  0
  4 49  1  0  0  0
  5  6  1  0  0  0
  5 12  1  0  0  0
  5 50  1  0  0  0
  6  7  1  0  0  0
  6 16  1  0  0  0
  6 51  1  0  0  0
  7  8  1  0  0  0
  7 17  1  0  0  0
  7 52  1  0  0  0
  8  9  1  0  0  0
  8 18  1  0  0  0
  8 53  1  0  0  0
  9 19  1  0  0  0
  9 54  1  0  0  0
  9 55  1  0  0  0
 10 11  1  0  0  0
 10 12  1  0  0  0
 10 20  2  0  0  0
 11 56  1  0  0  0
 11 57  1  0  0  0
 11 58  1  0  0  0
 12 59  1  0  0  0
 15 60  1  0  0  0
 17 61  1  0  0  0
 18 62  1  0  0  0
 19 63  1  0  0  0
 21 22  1  0  0  0
 21 30  1  0  0  0
 21 43  1  0  0  0
 21 64  1  0  0  0
 22 23  1  0  0  0
 22 27  1  0  0  0
 22 65  1  0  0  0
 23 24  1  0  0  0
 23 28  1  0  0  0
 23 66  1  0  0  0
 24 25  1  0  0  0
 24 29  1  0  0  0
 24 67  1  0  0  0
 25 26  1  0  0  0
 25 30  1  0  0  0
 25 68  1  0  0  0
 26 31  1  0  0  0
 26 69  1  0  0  0
 26 70  1  0  0  0
 27 71  1  0  0  0
 29 72  1  0  0  0
 31 73  1  0  0  0
 32 33  1  0  0  0
 32 41  1  0  0  0
 32 44  1  0  0  0
 32 74  1  0  0  0
 33 34  1  0  0  0
 33 40  1  0  0  0
 33 75  1  0  0  0
 34 35  1  0  0  0
 34 42  1  0  0  0
 34 76  1  0  0  0
 35 36  1  0  0  0
 35 43  1  0  0  0
 35 77  1  0  0  0
 36 37  1  0  0  0
 36 44  1  0  0  0
 36 78  1  0  0  0
 37 45  1  0  0  0
 37 79  1  0  0  0
 37 80  1  0  0  0
 38 39  1  0  0  0
 38 40  1  0  0  0
 38 46  2  0  0  0
 39 81  1  0  0  0
 39 82  1  0  0  0
 39 83  1  0  0  0
 40 84  1  0  0  0
 41 85  1  0  0  0
 42 86  1  0  0  0
 45 87  1  0  0  0
M  CHG  1  13  -1
M  END
> <s_m_source_file>
../4xqu_ligand.sdf

> <i_m_source_file_index>
1

> <s_epik_input>
W09IXVtDSDJdW0NAQEhdKFtPSF0pW0NAQEhdKFtPSF0pW0NASF0oTzEpW0NASF0oW05IXUMoPU8pW0NIM10pW0NAQEhdKFtPSF0pW0NIMl1bQ0BAXTEoQyg9TylbT0hdKU9bQ0BASF0oW0NAQEhdKFtPSF0pW0NASF0oTzIpW0NIMl1bT0hdKVtDQEBIXShbT0hdKVtDQEBIXTJPW0NASF0oW0NASF0oTzMpW0NIMl1bT0hdKVtDQEhdKFtPSF0pW0NASF0oW0NAQEhdM1tPSF0pW05IXUMoPU8pW0NIM10=

> <s_epik_cmdline>
J2VwaWtfYXBwJywgJy1pbWFlJywgJ2xpZ2FuZF9wcm8ubWFlJywgJy1vbWFlJywgJ2xpZ2FuZF9wcmVwLm1hZScsICctbXMnLCAnMScsICctcGgnLCAnNycsICctcGh0JywgJzAuNScsICctbnQn

> <r_lp_tautomer_probability>
1

> <r_epik_Ionization_Penalty>
  0.0000

> <r_epik_Ionization_Penalty_Charging>
  0.0000

> <r_epik_Ionization_Penalty_Neutral>
  0.0000

> <r_epik_State_Penalty>
 -0.0000

> <r_epik_Charging_Adjusted_Penalty>
9.90123822354334e-06

> <i_epik_Tot_Q>
-1

> <i_epik_Tot_abs_Q>
1

> <s_epik_Chemistry_Notes>
This compound contains an acetal/aminal-like group ( X-CH(R)-Y where X, Y are N, S, or O) that may be acid/base labile, releasing an aldehyde.

$$$$
