4xrq_ligand
                    3D
 Schrodinger Suite 2020-3.
 58 61  0  0  1  0            999 V2000
   31.1810   -0.6890   -0.2870 O   0  0  0  0  0  0
   29.9940   -0.4930   -0.0820 C   0  0  0  0  0  0
   29.0250   -1.0570   -0.8020 N   0  0  0  0  0  0
   29.2610   -1.9510   -1.9220 C   0  0  2  0  0  0
   29.3670   -1.1050   -3.1740 C   0  0  0  0  0  0
   30.2220   -1.4220   -4.1550 N   0  0  0  0  0  0
   31.0420   -2.5510   -4.0110 C   0  0  0  0  0  0
   30.6540   -3.7770   -4.5560 C   0  0  0  0  0  0
   31.4730   -4.8970   -4.4080 C   0  0  0  0  0  0
   32.6790   -4.7950   -3.7110 C   0  0  0  0  0  0
   33.0670   -3.5700   -3.1660 C   0  0  0  0  0  0
   32.2530   -2.4450   -3.3190 C   0  0  0  0  0  0
   30.3710   -0.6520   -5.3870 C   0  0  0  0  0  0
   28.6440   -0.1250   -3.2690 O   0  0  0  0  0  0
   28.0660   -2.9020   -2.0280 C   0  0  0  0  0  0
   28.0420   -3.8810   -0.8700 C   0  0  0  0  0  0
   28.7000   -5.1010   -0.9780 C   0  0  0  0  0  0
   28.6760   -5.9980    0.0890 C   0  0  0  0  0  0
   28.0070   -5.6770    1.2660 C   0  0  0  0  0  0
   27.3560   -4.4530    1.3810 C   0  0  0  0  0  0
   27.3730   -3.5640    0.3110 C   0  0  0  0  0  0
   29.5300    0.4510    1.0090 C   0  0  0  0  0  0
   30.0490    0.1200    2.3830 C   0  0  0  0  0  0
   31.3190    0.5600    2.9920 C   0  0  0  0  0  0
   32.3390    1.3430    2.4650 C   0  0  0  0  0  0
   33.4540    1.6080    3.2570 C   0  0  0  0  0  0
   33.5300    1.0870    4.5500 C   0  0  0  0  0  0
   32.5010    0.2960    5.0610 C   0  0  0  0  0  0
   31.3790    0.0250    4.2750 C   0  0  0  0  0  0
   30.2480   -0.6970    4.5140 N   0  0  0  0  0  0
   29.4050   -0.6910    3.4480 C   0  0  0  0  0  0
   28.0710   -1.3830    3.3610 C   0  0  0  0  0  0
   27.9957   -0.8094   -0.5033 H   0  0  0  0  0  0
   30.1951   -2.5072   -1.7542 H   0  0  0  0  0  0
   29.7113   -3.8589   -5.0970 H   0  0  0  0  0  0
   31.1712   -5.8526   -4.8368 H   0  0  0  0  0  0
   33.3166   -5.6711   -3.5928 H   0  0  0  0  0  0
   34.0070   -3.4910   -2.6199 H   0  0  0  0  0  0
   32.5608   -1.4869   -2.9001 H   0  0  0  0  0  0
   29.6755    0.2001   -5.3732 H   0  0  0  0  0  0
   30.1460   -1.2950   -6.2507 H   0  0  0  0  0  0
   31.4037   -0.2813   -5.4650 H   0  0  0  0  0  0
   27.1324   -2.3204   -2.0160 H   0  0  0  0  0  0
   28.1319   -3.4704   -2.9675 H   0  0  0  0  0  0
   29.2330   -5.3554   -1.8941 H   0  0  0  0  0  0
   29.1850   -6.9578    0.0005 H   0  0  0  0  0  0
   27.9930   -6.3831    2.0962 H   0  0  0  0  0  0
   26.8362   -4.1923    2.3029 H   0  0  0  0  0  0
   26.8568   -2.6079    0.3973 H   0  0  0  0  0  0
   29.8662    1.4724    0.7775 H   0  0  0  0  0  0
   28.4318    0.4311    1.0685 H   0  0  0  0  0  0
   32.2792    1.7510    1.4452 H   0  0  0  0  0  0
   34.2735    2.2273    2.8635 H   0  0  0  0  0  0
   34.4029    1.3007    5.1669 H   0  0  0  0  0  0
   32.5711   -0.1139    6.0794 H   0  0  0  0  0  0
   27.6240   -1.1948    2.3737 H   0  0  0  0  0  0
   27.4046   -0.9946    4.1453 H   0  0  0  0  0  0
   28.2096   -2.4653    3.5004 H   0  0  0  0  0  0
  1  2  2  0  0  0
  2  3  1  0  0  0
  2 22  1  0  0  0
  3  4  1  0  0  0
  3 33  1  0  0  0
  4  5  1  0  0  0
  4 15  1  0  0  0
  4 34  1  0  0  0
  5  6  1  0  0  0
  5 14  2  0  0  0
  6  7  1  0  0  0
  6 13  1  0  0  0
  7  8  2  0  0  0
  7 12  1  0  0  0
  8  9  1  0  0  0
  8 35  1  0  0  0
  9 10  2  0  0  0
  9 36  1  0  0  0
 10 11  1  0  0  0
 10 37  1  0  0  0
 11 12  2  0  0  0
 11 38  1  0  0  0
 12 39  1  0  0  0
 13 40  1  0  0  0
 13 41  1  0  0  0
 13 42  1  0  0  0
 15 16  1  0  0  0
 15 43  1  0  0  0
 15 44  1  0  0  0
 16 17  2  0  0  0
 16 21  1  0  0  0
 17 18  1  0  0  0
 17 45  1  0  0  0
 18 19  2  0  0  0
 18 46  1  0  0  0
 19 20  1  0  0  0
 19 47  1  0  0  0
 20 21  2  0  0  0
 20 48  1  0  0  0
 21 49  1  0  0  0
 22 23  1  0  0  0
 22 50  1  0  0  0
 22 51  1  0  0  0
 23 24  2  0  0  0
 23 31  1  0  0  0
 24 25  1  0  0  0
 24 29  1  0  0  0
 25 26  2  0  0  0
 25 52  1  0  0  0
 26 27  1  0  0  0
 26 53  1  0  0  0
 27 28  1  0  0  0
 27 54  1  0  0  0
 28 29  2  0  0  0
 28 55  1  0  0  0
 29 30  1  0  0  0
 30 31  2  0  0  0
 31 32  1  0  0  0
 32 56  1  0  0  0
 32 57  1  0  0  0
 32 58  1  0  0  0
M  END
> <s_m_source_file>
../4xrq_ligand.sdf

> <i_m_source_file_index>
1

> <s_epik_input>
W0NIXTE9W0NIXVtDSDJdW0NIXT1DKEMxMilOPUMoW0NIM10pQz0yW0NIMl1DKD1PKVtOSF1bQ0BASF0oW0NIMl1jM1tjSF1bY0hdW2NIXVtjSF1bY0hdMylDKD1PKU4oW0NIM10pYzRbY0hdW2NIXVtjSF1bY0hdW2NIXTQ=

> <s_epik_cmdline>
J2VwaWtfYXBwJywgJy1pbWFlJywgJ2xpZ2FuZF9wcm8ubWFlJywgJy1vbWFlJywgJ2xpZ2FuZF9wcmVwLm1hZScsICctbXMnLCAnMScsICctcGgnLCAnNycsICctcGh0JywgJzAuNScsICctbnQn

> <r_lp_tautomer_probability>
1

> <r_epik_Ionization_Penalty>
  0.0000

> <r_epik_Ionization_Penalty_Charging>
  0.0000

> <r_epik_Ionization_Penalty_Neutral>
  0.0000

> <r_epik_State_Penalty>
 -0.0000

> <r_epik_Charging_Adjusted_Penalty>
0

> <i_epik_Tot_Q>
0

> <i_epik_Tot_abs_Q>
0

> <s_epik_Chemistry_Notes>
This compound has an imine and may undergo hydrolysis.

$$$$
