4xs2_ligand
                    3D
 Schrodinger Suite 2020-3.
 58 61  0  0  1  0            999 V2000
   29.9150    8.8900   -7.9880 C   0  0  0  0  0  0
   29.4050    8.1810   -6.9060 N   0  0  0  0  0  0
   29.7310    6.8920   -6.7770 C   0  0  0  0  0  0
   30.5020    6.1930   -7.6100 N   0  0  0  0  0  0
   31.0370    6.8280   -8.7040 C   0  0  0  0  0  0
   30.7670    8.2490   -9.0200 C   0  0  0  0  0  0
   29.5390   10.2120   -8.0230 N   0  0  0  0  0  0
   29.2310    6.2080   -5.6990 N   0  0  0  0  0  0
   31.9670    5.6630   -9.6070 Cl  0  0  0  0  0  0
   31.3580    9.0400  -10.1860 C   0  0  0  0  0  0
   28.6350   11.0540   -7.2150 C   0  0  1  0  0  0
   28.9140   11.0610   -5.6890 C   0  0  1  0  0  0
   29.7560   12.3390   -5.3980 C   0  0  1  0  0  0
   29.4430   13.3240   -6.5700 C   0  0  2  0  0  0
   28.6020   12.5430   -7.6190 C   0  0  0  0  0  0
   27.7020   11.0410   -4.9490 O   0  0  0  0  0  0
   29.4670   12.8870   -4.0940 O   0  0  0  0  0  0
   30.6630   14.0700   -7.1730 C   0  0  0  0  0  0
   30.5540   15.4850   -7.0630 O   0  0  0  0  0  0
   28.1020    6.5040   -4.8460 C   0  0  0  0  0  0
   28.1430    5.5810   -3.6260 C   0  0  0  0  0  0
   26.9070    5.7940   -2.7430 C   0  0  0  0  0  0
   26.5350    4.5530   -2.1560 O   0  0  0  0  0  0
   25.1550    4.2450   -2.3450 C   0  0  0  0  0  0
   32.6080    8.4460  -11.3050 S   0  0  0  0  0  0
   32.7370    9.9930  -12.1260 C   0  0  0  0  0  0
   31.8270   10.9020  -11.4970 C   0  0  0  0  0  0
   31.1170   10.3520  -10.4100 N   0  0  0  0  0  0
   33.5490   10.4020  -13.2340 C   0  0  0  0  0  0
   33.4490   11.7430  -13.7320 C   0  0  0  0  0  0
   32.5540   12.6730  -13.1300 C   0  0  0  0  0  0
   31.7530   12.2550  -12.0190 C   0  0  0  0  0  0
   30.0851   10.6489   -8.8721 H   0  0  0  0  0  0
   29.8357    5.3071   -5.5181 H   0  0  0  0  0  0
   27.7047   10.5249   -7.4690 H   0  0  0  0  0  0
   29.3919   10.1397   -5.3245 H   0  0  0  0  0  0
   30.8329   12.1488   -5.2794 H   0  0  0  0  0  0
   28.8675   14.1722   -6.1708 H   0  0  0  0  0  0
   29.0329   12.6598   -8.6243 H   0  0  0  0  0  0
   27.5612   12.8990   -7.6226 H   0  0  0  0  0  0
   27.0065   10.1955   -5.0555 H   0  0  0  0  0  0
   29.6477   12.2843   -3.1917 H   0  0  0  0  0  0
   31.5782   13.7617   -6.6464 H   0  0  0  0  0  0
   30.7532   13.8221   -8.2409 H   0  0  0  0  0  0
   31.3549   16.1303   -7.4530 H   0  0  0  0  0  0
   28.1545    7.5530   -4.5191 H   0  0  0  0  0  0
   27.1681    6.3400   -5.4037 H   0  0  0  0  0  0
   28.1651    4.5331   -3.9597 H   0  0  0  0  0  0
   29.0444    5.7962   -3.0335 H   0  0  0  0  0  0
   27.1423    6.5216   -1.9523 H   0  0  0  0  0  0
   26.0785    6.1757   -3.3578 H   0  0  0  0  0  0
   24.9269    3.2785   -1.8718 H   0  0  0  0  0  0
   24.9364    4.1869   -3.4215 H   0  0  0  0  0  0
   24.5377    5.0321   -1.8874 H   0  0  0  0  0  0
   34.2397    9.6967  -13.6962 H   0  0  0  0  0  0
   34.0627   12.0529  -14.5778 H   0  0  0  0  0  0
   32.4795   13.6916  -13.5107 H   0  0  0  0  0  0
   31.0724   12.9686  -11.5547 H   0  0  0  0  0  0
  1  2  2  0  0  0
  1  6  1  0  0  0
  1  7  1  0  0  0
  2  3  1  0  0  0
  3  4  2  0  0  0
  3  8  1  0  0  0
  4  5  1  0  0  0
  5  6  2  0  0  0
  5  9  1  0  0  0
  6 10  1  0  0  0
  7 11  1  0  0  0
  7 33  1  0  0  0
  8 20  1  0  0  0
  8 34  1  0  0  0
 10 25  1  0  0  0
 10 28  2  0  0  0
 11 12  1  0  0  0
 11 15  1  0  0  0
 11 35  1  0  0  0
 12 13  1  0  0  0
 12 16  1  0  0  0
 12 36  1  0  0  0
 13 14  1  0  0  0
 13 17  1  0  0  0
 13 37  1  0  0  0
 14 15  1  0  0  0
 14 18  1  0  0  0
 14 38  1  0  0  0
 15 39  1  0  0  0
 15 40  1  0  0  0
 16 41  1  0  0  0
 17 42  1  0  0  0
 18 19  1  0  0  0
 18 43  1  0  0  0
 18 44  1  0  0  0
 19 45  1  0  0  0
 20 21  1  0  0  0
 20 46  1  0  0  0
 20 47  1  0  0  0
 21 22  1  0  0  0
 21 48  1  0  0  0
 21 49  1  0  0  0
 22 23  1  0  0  0
 22 50  1  0  0  0
 22 51  1  0  0  0
 23 24  1  0  0  0
 24 52  1  0  0  0
 24 53  1  0  0  0
 24 54  1  0  0  0
 25 26  1  0  0  0
 26 27  2  0  0  0
 26 29  1  0  0  0
 27 28  1  0  0  0
 27 32  1  0  0  0
 29 30  2  0  0  0
 29 55  1  0  0  0
 30 31  1  0  0  0
 30 56  1  0  0  0
 31 32  2  0  0  0
 31 57  1  0  0  0
 32 58  1  0  0  0
M  END
> <s_m_source_file>
../4xs2_ligand.sdf

> <i_m_source_file_index>
1

> <s_epik_input>
W09IXVtDSDJdW0NAQEhdKFtDSDJdMSlbQ0BASF0oW09IXSlbQ0BASF0oW09IXSlbQ0BASF0xW05IXWMybmMoW05IXVtDSDJdW0NIMl1bQ0gyXU9bQ0gzXSluYyhDbCljMi1jKHMzKW5jKGMzNClbY0hdW2NIXVtjSF1bY0hdNA==

> <s_epik_cmdline>
J2VwaWtfYXBwJywgJy1pbWFlJywgJ2xpZ2FuZF9wcm8ubWFlJywgJy1vbWFlJywgJ2xpZ2FuZF9wcmVwLm1hZScsICctbXMnLCAnMScsICctcGgnLCAnNycsICctcGh0JywgJzAuNScsICctbnQn

> <r_lp_tautomer_probability>
1

> <r_epik_Ionization_Penalty>
  0.0027

> <r_epik_Ionization_Penalty_Charging>
  0.0000

> <r_epik_Ionization_Penalty_Neutral>
  0.0027

> <r_epik_State_Penalty>
 -0.0000

> <r_epik_Charging_Adjusted_Penalty>
0

> <i_epik_Tot_Q>
0

> <i_epik_Tot_abs_Q>
0

$$$$
