4xsz_ligand
                    3D
 Schrodinger Suite 2020-3.
 54 57  0  0  1  0            999 V2000
   34.9930  -96.7500   -5.7620 C   0  0  0  0  0  0
   35.2530  -95.5820   -5.1860 F   0  0  0  0  0  0
   34.6430  -97.8740   -5.0060 C   0  0  0  0  0  0
   34.3760  -99.0780   -5.6440 C   0  0  0  0  0  0
   34.4330  -99.2640   -7.0250 C   0  0  0  0  0  0
   34.7880  -98.1090   -7.7280 C   0  0  0  0  0  0
   35.0600  -96.8940   -7.1430 C   0  0  0  0  0  0
   34.1780 -100.4870   -7.8630 C   0  0  0  0  0  0
   33.5930 -100.8410   -9.1740 C   0  0  0  0  0  0
   32.9640  -99.9140  -10.2060 C   0  0  0  0  0  0
   33.1460  -99.9170  -11.5980 C   0  0  0  0  0  0
   32.5430  -99.0450  -12.4820 C   0  0  0  0  0  0
   31.6420  -98.0040  -12.1000 C   0  0  0  0  0  0
   31.0720  -97.1570  -13.0450 N   0  0  0  0  0  0
   31.4000  -96.9300  -14.4900 C   0  0  0  0  0  0
   32.8300  -96.3550  -14.8110 C   0  0  0  0  0  0
   33.4260  -97.0880  -15.9980 N   0  0  0  0  0  0
   34.7580  -96.4610  -16.3580 C   0  0  0  0  0  0
   34.7090  -95.4750  -17.5690 C   0  0  0  0  0  0
   33.4550  -94.7180  -17.6390 N   0  3  0  0  0  0
   32.2930  -95.6100  -17.8160 C   0  0  0  0  0  0
   32.4530  -96.9800  -17.1480 C   0  0  0  0  0  0
   31.4450  -97.9880  -10.6800 C   0  0  0  0  0  0
   32.0830  -98.8950   -9.8220 C   0  0  0  0  0  0
   30.5030  -96.9090  -10.0720 C   0  0  0  0  0  0
   29.3240  -97.3580   -9.6860 F   0  0  0  0  0  0
   30.9740  -96.2550   -9.0260 F   0  0  0  0  0  0
   30.2490  -95.9780  -10.9680 F   0  0  0  0  0  0
   33.7570 -102.2100   -9.2260 C   0  0  0  0  0  0
   34.3640 -102.6290   -8.0930 N   0  0  0  0  0  0
   34.6390 -101.6230   -7.2460 N   0  0  0  0  0  0
   34.5801  -97.8048   -3.9200 H   0  0  0  0  0  0
   34.1042  -99.9333   -5.0254 H   0  0  0  0  0  0
   34.8538  -98.1757   -8.8140 H   0  0  0  0  0  0
   35.3292  -96.0404   -7.7651 H   0  0  0  0  0  0
   33.8173 -100.6682  -12.0141 H   0  0  0  0  0  0
   32.7693  -99.1582  -13.5422 H   0  0  0  0  0  0
   30.2519  -96.5965  -12.5725 H   0  0  0  0  0  0
   31.3330  -97.8830  -15.0353 H   0  0  0  0  0  0
   30.6868  -96.2110  -14.9194 H   0  0  0  0  0  0
   32.7496  -95.2840  -15.0487 H   0  0  0  0  0  0
   33.4837  -96.4884  -13.9364 H   0  0  0  0  0  0
   35.1388  -95.8901  -15.4983 H   0  0  0  0  0  0
   35.4764  -97.2516  -16.6204 H   0  0  0  0  0  0
   35.5329  -94.7509  -17.4858 H   0  0  0  0  0  0
   34.8113  -96.0407  -18.5068 H   0  0  0  0  0  0
   33.3178  -94.1488  -16.7077 H   0  0  0  0  0  0
   33.4931  -94.0233  -18.4910 H   0  0  0  0  0  0
   31.3993  -95.1386  -17.3811 H   0  0  0  0  0  0
   32.1279  -95.7887  -18.8888 H   0  0  0  0  0  0
   32.7615  -97.6614  -17.9545 H   0  0  0  0  0  0
   31.4451  -97.2534  -16.8025 H   0  0  0  0  0  0
   31.8739  -98.7981   -8.7566 H   0  0  0  0  0  0
   33.4463 -102.8521  -10.0502 H   0  0  0  0  0  0
  1  2  1  0  0  0
  1  3  2  0  0  0
  1  7  1  0  0  0
  3  4  1  0  0  0
  3 32  1  0  0  0
  4  5  2  0  0  0
  4 33  1  0  0  0
  5  6  1  0  0  0
  5  8  1  0  0  0
  6  7  2  0  0  0
  6 34  1  0  0  0
  7 35  1  0  0  0
  8  9  2  0  0  0
  8 31  1  0  0  0
  9 10  1  0  0  0
  9 29  1  0  0  0
 10 11  2  0  0  0
 10 24  1  0  0  0
 11 12  1  0  0  0
 11 36  1  0  0  0
 12 13  2  0  0  0
 12 37  1  0  0  0
 13 14  1  0  0  0
 13 23  1  0  0  0
 14 15  1  0  0  0
 14 38  1  0  0  0
 15 16  1  0  0  0
 15 39  1  0  0  0
 15 40  1  0  0  0
 16 17  1  0  0  0
 16 41  1  0  0  0
 16 42  1  0  0  0
 17 18  1  0  0  0
 17 22  1  0  0  0
 18 19  1  0  0  0
 18 43  1  0  0  0
 18 44  1  0  0  0
 19 20  1  0  0  0
 19 45  1  0  0  0
 19 46  1  0  0  0
 20 21  1  0  0  0
 20 47  1  0  0  0
 20 48  1  0  0  0
 21 22  1  0  0  0
 21 49  1  0  0  0
 21 50  1  0  0  0
 22 51  1  0  0  0
 22 52  1  0  0  0
 23 24  2  0  0  0
 23 25  1  0  0  0
 24 53  1  0  0  0
 25 26  1  0  0  0
 25 27  1  0  0  0
 25 28  1  0  0  0
 29 30  1  0  0  0
 29 54  1  0  0  0
 30 31  2  0  0  0
M  CHG  1  20   1
M  END
> <s_m_source_file>
../4xsz_ligand.sdf

> <i_m_source_file_index>
1

> <s_epik_input>
RmMxW2NIXVtjSF1jKFtjSF1bY0hdMSlDMj1DKFtDSDJdTj1OMiljM1tjSF1bY0hdYyhjKFtjSF0zKUMoRikoRilGKVtOSF1bQ0gyXVtDSDJdW05IK100W0NIMl1bQ0gyXVtOSDIrXVtDSDJdW0NIMl00

> <s_epik_cmdline>
J2VwaWtfYXBwJywgJy1pbWFlJywgJ2xpZ2FuZF9wcm8ubWFlJywgJy1vbWFlJywgJ2xpZ2FuZF9wcmVwLm1hZScsICctbXMnLCAnMScsICctcGgnLCAnNycsICctcGh0JywgJzAuNScsICctbnQn

> <r_lp_tautomer_probability>
1

> <r_epik_Ionization_Penalty>
  0.0049

> <r_epik_Ionization_Penalty_Charging>
  0.0028

> <r_epik_Ionization_Penalty_Neutral>
  0.0022

> <r_epik_State_Penalty>
 -0.0000

> <r_epik_Charging_Adjusted_Penalty>
0.00275398572820994

> <i_epik_Tot_Q>
1

> <i_epik_Tot_abs_Q>
1

$$$$
