4xt9_ligand
                    3D
 Schrodinger Suite 2020-3.
 54 57  0  0  1  0            999 V2000
   -3.3620   27.1630   12.2080 N   0  0  0  0  0  0
    0.7060   26.1890   14.0580 C   0  0  0  0  0  0
   -0.2410   26.7240   13.1930 C   0  0  0  0  0  0
   -0.2300   26.3970   11.8380 C   0  0  0  0  0  0
   -1.3180   26.9900   10.9210 C   0  0  0  0  0  0
   -2.6310   26.3690   11.4300 C   0  0  0  0  0  0
   -6.1740   26.9440   14.3600 C   0  0  0  0  0  0
   -7.7130   24.4850   15.6390 C   0  0  0  0  0  0
   -9.5020   22.9600   15.0330 C   0  0  0  0  0  0
   -8.2280   24.1040   13.3230 C   0  0  0  0  0  0
   -6.6530   28.8830   17.4440 C   0  0  0  0  0  0
   -8.0280   29.0790   17.4700 C   0  0  0  0  0  0
   -8.8210   28.5640   16.4450 C   0  0  0  0  0  0
    0.7340   25.5110   11.3490 C   0  0  0  0  0  0
    0.7740   23.1770   15.8070 C   0  0  0  0  0  0
    2.2170   23.0390   15.2960 C   0  0  0  0  0  0
    2.8650   24.6460   14.7060 S   0  0  0  0  0  0
    4.1690   24.4300   14.0040 O   0  0  0  0  0  0
    3.0320   25.5240   15.9140 O   0  0  0  0  0  0
    1.6810   25.3230   13.5790 C   0  0  0  0  0  0
    1.6880   24.9800   12.2190 C   0  0  0  0  0  0
   -2.9150   25.2080   11.1590 O   0  0  0  0  0  0
   -4.4680   26.7460   12.8460 C   0  0  0  0  0  0
   -5.0830   27.4890   13.7710 N   0  0  0  0  0  0
   -5.2680   25.2500   12.7370 S   0  0  0  0  0  0
   -6.4420   25.6340   13.9040 C   0  0  0  0  0  0
   -7.4630   24.7530   14.2890 C   0  0  0  0  0  0
   -9.2480   23.2170   13.6850 C   0  0  0  0  0  0
   -8.7300   23.5980   16.0080 C   0  0  0  0  0  0
   -6.8790   27.6370   15.3550 C   0  0  0  0  0  0
   -6.1000   28.1680   16.3850 C   0  0  0  0  0  0
   -5.6350   29.5220   18.7030 Cl  0  0  0  0  0  0
   -8.2620   27.8480   15.3880 C   0  0  0  0  0  0
   -9.3320   27.2550   14.1680 Cl  0  0  0  0  0  0
   -3.0688   28.2134   12.3520 H   0  0  0  0  0  0
    0.6837   26.4498   15.1161 H   0  0  0  0  0  0
   -0.9995   27.4057   13.5777 H   0  0  0  0  0  0
   -1.3191   28.0860   11.0147 H   0  0  0  0  0  0
   -1.1098   26.7114    9.8774 H   0  0  0  0  0  0
   -7.1119   24.9701   16.4080 H   0  0  0  0  0  0
  -10.2939   22.2692   15.3224 H   0  0  0  0  0  0
   -8.0290   24.2900   12.2676 H   0  0  0  0  0  0
   -8.4857   29.6337   18.2891 H   0  0  0  0  0  0
   -9.8988   28.7245   16.4710 H   0  0  0  0  0  0
    0.7409   25.2361   10.2942 H   0  0  0  0  0  0
    0.4127   22.1977   16.1540 H   0  0  0  0  0  0
    0.1294   23.5380   14.9920 H   0  0  0  0  0  0
    0.7473   23.8941   16.6407 H   0  0  0  0  0  0
    2.8616   22.6780   16.1110 H   0  0  0  0  0  0
    2.2438   22.3219   14.4623 H   0  0  0  0  0  0
    2.4442   24.2935   11.8384 H   0  0  0  0  0  0
   -9.8437   22.7272   12.9147 H   0  0  0  0  0  0
   -8.9217   23.4031   17.0632 H   0  0  0  0  0  0
   -5.0208   28.0174   16.3591 H   0  0  0  0  0  0
  1  6  1  0  0  0
  1 23  1  0  0  0
  1 35  1  0  0  0
  2  3  2  0  0  0
  2 20  1  0  0  0
  2 36  1  0  0  0
  3  4  1  0  0  0
  3 37  1  0  0  0
  4  5  1  0  0  0
  4 14  2  0  0  0
  5  6  1  0  0  0
  5 38  1  0  0  0
  5 39  1  0  0  0
  6 22  2  0  0  0
  7 24  1  0  0  0
  7 26  2  0  0  0
  7 30  1  0  0  0
  8 27  2  0  0  0
  8 29  1  0  0  0
  8 40  1  0  0  0
  9 28  1  0  0  0
  9 29  2  0  0  0
  9 41  1  0  0  0
 10 27  1  0  0  0
 10 28  2  0  0  0
 10 42  1  0  0  0
 11 12  2  0  0  0
 11 31  1  0  0  0
 11 32  1  0  0  0
 12 13  1  0  0  0
 12 43  1  0  0  0
 13 33  2  0  0  0
 13 44  1  0  0  0
 14 21  1  0  0  0
 14 45  1  0  0  0
 15 16  1  0  0  0
 15 46  1  0  0  0
 15 47  1  0  0  0
 15 48  1  0  0  0
 16 17  1  0  0  0
 16 49  1  0  0  0
 16 50  1  0  0  0
 17 18  2  0  0  0
 17 19  2  0  0  0
 17 20  1  0  0  0
 20 21  2  0  0  0
 21 51  1  0  0  0
 23 24  2  0  0  0
 23 25  1  0  0  0
 25 26  1  0  0  0
 26 27  1  0  0  0
 28 52  1  0  0  0
 29 53  1  0  0  0
 30 31  2  0  0  0
 30 33  1  0  0  0
 31 54  1  0  0  0
 33 34  1  0  0  0
M  END
> <s_m_source_file>
../4xt9_ligand.sdf

> <i_m_source_file_index>
1

> <s_epik_input>
W0NIM11bQ0gyXVMoPU8pKD1PKWMoW2NIXVtjSF0xKVtjSF1bY0hdYzFbQ0gyXUMoPU8pW05IXWMobmMyLWMoW2NIXTMpYyhDbClbY0hdW2NIXWMzQ2wpc2MyLWM0W2NIXVtjSF1bY0hdW2NIXVtjSF00

> <s_epik_cmdline>
J2VwaWtfYXBwJywgJy1pbWFlJywgJ2xpZ2FuZF9wcm8ubWFlJywgJy1vbWFlJywgJ2xpZ2FuZF9wcmVwLm1hZScsICctbXMnLCAnMScsICctcGgnLCAnNycsICctcGh0JywgJzAuNScsICctbnQn

> <r_lp_tautomer_probability>
1

> <r_epik_Ionization_Penalty>
  0.0011

> <r_epik_Ionization_Penalty_Charging>
  0.0000

> <r_epik_Ionization_Penalty_Neutral>
  0.0011

> <r_epik_State_Penalty>
 -0.0000

> <r_epik_Charging_Adjusted_Penalty>
0

> <i_epik_Tot_Q>
0

> <i_epik_Tot_abs_Q>
0

$$$$
