4xty_ligand
                    3D
 Schrodinger Suite 2020-3.
 65 69  0  0  1  0            999 V2000
   -5.7380   -0.3080   11.3990 C   0  0  0  0  0  0
   -6.1950   -1.0640   14.9220 N   0  0  0  0  0  0
   -5.4140   -0.5450   12.7170 C   0  0  0  0  0  0
   -4.6040   -0.0710   10.7400 N   0  0  0  0  0  0
   -3.5680   -0.1900   11.5940 C   0  0  0  0  0  0
   -2.1540   -9.9100   13.7480 C   0  0  1  0  0  0
   -0.9240   -9.1750   13.4970 N   0  0  0  0  0  0
   -0.0130   -9.3750   14.4560 C   0  0  0  0  0  0
    1.0740   -8.8020   14.5290 O   0  0  0  0  0  0
   -0.4670  -10.2650   15.3410 N   0  0  0  0  0  0
   -1.8440  -10.6250   15.0750 C   0  0  1  0  0  0
   -2.7380  -10.0980   16.2050 C   0  0  0  0  0  0
   -3.2630   -8.5160   15.6340 S   0  0  0  0  0  0
   -3.3670   -8.9920   13.9370 C   0  0  1  0  0  0
   -3.4370   -7.8090   12.9750 C   0  0  0  0  0  0
   -3.6520   -8.2930   11.5500 C   0  0  0  0  0  0
   -3.9370   -7.1370   10.5940 C   0  0  0  0  0  0
   -4.0890   -7.5860    9.1460 C   0  0  0  0  0  0
   -4.4620   -6.3970    8.2680 C   0  0  0  0  0  0
   -5.5320   -5.8440    8.3940 O   0  0  0  0  0  0
   -3.5610   -5.9700    7.3870 N   0  0  0  0  0  0
   -3.9710   -4.8790    6.2760 S   0  0  0  0  0  0
   -5.1800   -5.2530    5.5890 O   0  0  0  0  0  0
   -2.8920   -4.7350    5.3410 O   0  0  0  0  0  0
   -4.2480   -3.4850    7.0150 N   0  5  0  0  0  0
   -3.1500   -2.7370    7.6010 C   0  0  0  0  0  0
   -3.5690   -1.2800    7.7480 C   0  0  1  0  0  0
   -4.6710   -1.0850    8.6390 O   0  0  0  0  0  0
   -2.4710   -0.3980    8.3100 C   0  0  1  0  0  0
   -1.5410   -0.0510    7.2740 O   0  0  0  0  0  0
   -3.2470    0.7930    8.8290 C   0  0  2  0  0  0
   -4.5670    0.1920    9.2940 C   0  0  2  0  0  0
   -4.0620   -0.4710   12.8250 N   0  0  0  0  0  0
   -7.0240   -0.3100   10.9840 N   0  0  0  0  0  0
   -8.0000   -0.5710   11.8710 C   0  0  0  0  0  0
   -7.7200   -0.8150   13.1590 N   0  0  0  0  0  0
   -6.4450   -0.8090   13.6140 C   0  0  0  0  0  0
   -3.5620    1.5620    7.7330 F   0  0  0  0  0  0
   -5.1602   -1.0599   15.2951 H   0  0  0  0  0  0
   -7.0269   -1.2749   15.6100 H   0  0  0  0  0  0
   -2.5141   -0.0793   11.3388 H   0  0  0  0  0  0
   -2.3776  -10.5515   12.8829 H   0  0  0  0  0  0
   -0.8318   -8.5477   12.5981 H   0  0  0  0  0  0
    0.0656  -10.7177   16.1904 H   0  0  0  0  0  0
   -1.9620  -11.7176   15.0279 H   0  0  0  0  0  0
   -3.5836  -10.7855   16.3544 H   0  0  0  0  0  0
   -2.1528  -10.0293   17.1339 H   0  0  0  0  0  0
   -4.2520   -9.5179   13.5495 H   0  0  0  0  0  0
   -4.2735   -7.1539   13.2597 H   0  0  0  0  0  0
   -2.4953   -7.2424   13.0215 H   0  0  0  0  0  0
   -2.7494   -8.8153   11.2001 H   0  0  0  0  0  0
   -4.5086   -8.9826   11.5223 H   0  0  0  0  0  0
   -4.8723   -6.6390   10.8894 H   0  0  0  0  0  0
   -3.1084   -6.4147   10.6347 H   0  0  0  0  0  0
   -3.1387   -8.0127    8.7928 H   0  0  0  0  0  0
   -4.8801   -8.3474    9.0793 H   0  0  0  0  0  0
   -2.9071   -3.1557    8.5888 H   0  0  0  0  0  0
   -2.2686   -2.8063    6.9466 H   0  0  0  0  0  0
   -3.8900   -0.9861    6.7378 H   0  0  0  0  0  0
   -1.8124   -0.8557    9.0628 H   0  0  0  0  0  0
   -0.9153   -0.8296    6.8132 H   0  0  0  0  0  0
   -2.7109    1.4314    9.5467 H   0  0  0  0  0  0
   -5.4080    0.8618    9.0615 H   0  0  0  0  0  0
   -9.0374   -0.5844   11.5369 H   0  0  0  0  0  0
   -2.5344   -6.3637    7.4186 H   0  0  0  0  0  0
  1  3  2  0  0  0
  1  4  1  0  0  0
  1 34  1  0  0  0
  2 37  1  0  0  0
  2 39  1  0  0  0
  2 40  1  0  0  0
  3 33  1  0  0  0
  3 37  1  0  0  0
  4  5  1  0  0  0
  4 32  1  0  0  0
  5 33  2  0  0  0
  5 41  1  0  0  0
  6  7  1  0  0  0
  6 11  1  0  0  0
  6 14  1  0  0  0
  6 42  1  0  0  0
  7  8  1  0  0  0
  7 43  1  0  0  0
  8  9  2  0  0  0
  8 10  1  0  0  0
 10 11  1  0  0  0
 10 44  1  0  0  0
 11 12  1  0  0  0
 11 45  1  0  0  0
 12 13  1  0  0  0
 12 46  1  0  0  0
 12 47  1  0  0  0
 13 14  1  0  0  0
 14 15  1  0  0  0
 14 48  1  0  0  0
 15 16  1  0  0  0
 15 49  1  0  0  0
 15 50  1  0  0  0
 16 17  1  0  0  0
 16 51  1  0  0  0
 16 52  1  0  0  0
 17 18  1  0  0  0
 17 53  1  0  0  0
 17 54  1  0  0  0
 18 19  1  0  0  0
 18 55  1  0  0  0
 18 56  1  0  0  0
 19 20  2  0  0  0
 19 21  1  0  0  0
 21 22  1  0  0  0
 21 65  1  0  0  0
 22 23  2  0  0  0
 22 24  2  0  0  0
 22 25  1  0  0  0
 25 26  1  0  0  0
 26 27  1  0  0  0
 26 57  1  0  0  0
 26 58  1  0  0  0
 27 28  1  0  0  0
 27 29  1  0  0  0
 27 59  1  0  0  0
 28 32  1  0  0  0
 29 30  1  0  0  0
 29 31  1  0  0  0
 29 60  1  0  0  0
 30 61  1  0  0  0
 31 32  1  0  0  0
 31 38  1  0  0  0
 31 62  1  0  0  0
 32 63  1  0  0  0
 34 35  2  0  0  0
 35 36  1  0  0  0
 35 64  1  0  0  0
 36 37  2  0  0  0
M  CHG  1  25  -1
M  END
> <s_m_source_file>
../4xty_ligand.sdf

> <i_m_source_file_index>
1

> <s_epik_input>
bjFbY0hdbmMoW05IMl0pYyhjMTIpbltjSF1uMltDQEBIXShbQ0BIXShGKVtDQEBIXTNbT0hdKU9bQ0BASF0zW0NIMl1bTkhdUyg9TykoPU8pW05IXUMoPU8pW0NIMl1bQ0gyXVtDSDJdW0NIMl1bQ0BASF00U1tDSDJdW0NAQEhdKFtDQEBIXTQ1KVtOSF1DKD1PKVtOSF01

> <s_epik_cmdline>
J2VwaWtfYXBwJywgJy1pbWFlJywgJ2xpZ2FuZF9wcm8ubWFlJywgJy1vbWFlJywgJ2xpZ2FuZF9wcmVwLm1hZScsICctbXMnLCAnMScsICctcGgnLCAnNycsICctcGh0JywgJzAuNScsICctbnQn

> <r_lp_tautomer_probability>
0.999997216410988

> <r_epik_Ionization_Penalty>
  0.0649

> <r_epik_Ionization_Penalty_Charging>
  0.0157

> <r_epik_Ionization_Penalty_Neutral>
  0.0492

> <r_epik_State_Penalty>
  0.0530

> <r_epik_Charging_Adjusted_Penalty>
0.0687041764160217

> <i_epik_Tot_Q>
-1

> <i_epik_Tot_abs_Q>
1

> <s_epik_Chemistry_Notes>
This compound contains an acetal/aminal-like group ( X-CH(R)-Y where X, Y are N, S, or O) that may be acid/base labile, releasing an aldehyde.

$$$$
