4xtz_ligand
                    3D
 Schrodinger Suite 2020-3.
 64 68  0  0  1  0            999 V2000
   -2.2120  -10.0300   13.8170 C   0  0  1  0  0  0
   -0.9930   -9.2980   13.5280 N   0  0  0  0  0  0
   -0.0610   -9.5090   14.4540 C   0  0  0  0  0  0
    1.0300   -8.9580   14.4970 O   0  0  0  0  0  0
   -0.4860  -10.3920   15.3460 N   0  0  0  0  0  0
   -1.8880  -10.6900   15.1590 C   0  0  1  0  0  0
   -2.6460  -10.0480   16.3100 C   0  0  0  0  0  0
   -3.4360   -8.6370   15.6290 S   0  0  0  0  0  0
   -3.4110   -9.0950   13.9320 C   0  0  1  0  0  0
   -3.3010   -7.8960   12.9990 C   0  0  0  0  0  0
   -3.5850   -8.3520   11.5720 C   0  0  0  0  0  0
   -3.9010   -7.1860   10.6430 C   0  0  0  0  0  0
   -4.1890   -7.6800    9.2280 C   0  0  0  0  0  0
   -4.5930   -6.5120    8.3600 C   0  0  0  0  0  0
   -5.6950   -6.0010    8.4820 O   0  5  0  0  0  0
   -3.6870   -6.0750    7.4900 N   0  0  0  0  0  0
   -4.0830   -4.9680    6.4030 S   0  0  0  0  0  0
   -5.2660   -5.3800    5.7000 O   0  0  0  0  0  0
   -3.0050   -4.7910    5.4710 O   0  0  0  0  0  0
   -4.3600   -3.6520    7.1450 O   0  0  0  0  0  0
   -3.2960   -2.8760    7.6950 C   0  0  0  0  0  0
   -3.7290   -1.4160    7.7380 C   0  0  1  0  0  0
   -4.8720   -1.2110    8.5820 O   0  0  0  0  0  0
   -2.6540   -0.4780    8.2600 C   0  0  1  0  0  0
   -1.7840   -0.0730    7.2020 O   0  0  0  0  0  0
   -3.4750    0.6850    8.7800 C   0  0  2  0  0  0
   -2.8140    1.4350    9.7180 F   0  0  0  0  0  0
   -4.7590    0.0330    9.2900 C   0  0  2  0  0  0
   -4.7870   -0.2340   10.7560 N   0  0  0  0  0  0
   -3.7520   -0.3340   11.6080 C   0  0  0  0  0  0
   -4.2160   -0.5960   12.8510 N   0  0  0  0  0  0
   -5.5610   -0.6690   12.7670 C   0  0  0  0  0  0
   -5.9080   -0.4460   11.4480 C   0  0  0  0  0  0
   -7.2120   -0.4640   11.0840 N   0  0  0  0  0  0
   -8.1600   -0.7040   11.9970 C   0  0  0  0  0  0
   -7.8520   -0.9220   13.2820 N   0  0  0  0  0  0
   -6.5650   -0.9130   13.6940 C   0  0  0  0  0  0
   -6.2620   -1.1380   14.9950 N   0  0  0  0  0  0
   -2.4515  -10.7310   13.0039 H   0  0  0  0  0  0
   -0.9305   -8.6666   12.6294 H   0  0  0  0  0  0
    0.0779  -10.8833   16.1526 H   0  0  0  0  0  0
   -2.1037  -11.7686   15.1617 H   0  0  0  0  0  0
   -3.3797  -10.7633   16.7101 H   0  0  0  0  0  0
   -1.9381   -9.7664   17.1035 H   0  0  0  0  0  0
   -4.2884   -9.5884   13.4885 H   0  0  0  0  0  0
   -4.0330   -7.1310   13.2972 H   0  0  0  0  0  0
   -2.2862   -7.4759   13.0598 H   0  0  0  0  0  0
   -2.7043   -8.8762   11.1725 H   0  0  0  0  0  0
   -4.4491   -9.0326   11.5697 H   0  0  0  0  0  0
   -4.7850   -6.6486   11.0168 H   0  0  0  0  0  0
   -3.0417   -6.5001   10.6101 H   0  0  0  0  0  0
   -3.2854   -8.1503    8.8128 H   0  0  0  0  0  0
   -5.0058   -8.4162    9.2558 H   0  0  0  0  0  0
   -3.0721   -3.2297    8.7122 H   0  0  0  0  0  0
   -2.4009   -2.9821    7.0645 H   0  0  0  0  0  0
   -4.0140   -1.1684    6.7048 H   0  0  0  0  0  0
   -1.9504   -0.9100    8.9869 H   0  0  0  0  0  0
   -1.1229   -0.8091    6.7213 H   0  0  0  0  0  0
   -3.6277    1.5063    8.0644 H   0  0  0  0  0  0
   -5.6254    0.6841    9.1020 H   0  0  0  0  0  0
   -2.7018   -0.2214   11.3388 H   0  0  0  0  0  0
   -9.2053   -0.7225   11.6885 H   0  0  0  0  0  0
   -5.2126   -1.1295   15.3247 H   0  0  0  0  0  0
   -7.0653   -1.3292   15.7217 H   0  0  0  0  0  0
  1  2  1  0  0  0
  1  6  1  0  0  0
  1  9  1  0  0  0
  1 39  1  0  0  0
  2  3  1  0  0  0
  2 40  1  0  0  0
  3  4  2  0  0  0
  3  5  1  0  0  0
  5  6  1  0  0  0
  5 41  1  0  0  0
  6  7  1  0  0  0
  6 42  1  0  0  0
  7  8  1  0  0  0
  7 43  1  0  0  0
  7 44  1  0  0  0
  8  9  1  0  0  0
  9 10  1  0  0  0
  9 45  1  0  0  0
 10 11  1  0  0  0
 10 46  1  0  0  0
 10 47  1  0  0  0
 11 12  1  0  0  0
 11 48  1  0  0  0
 11 49  1  0  0  0
 12 13  1  0  0  0
 12 50  1  0  0  0
 12 51  1  0  0  0
 13 14  1  0  0  0
 13 52  1  0  0  0
 13 53  1  0  0  0
 14 15  1  0  0  0
 14 16  2  0  0  0
 16 17  1  0  0  0
 17 18  2  0  0  0
 17 19  2  0  0  0
 17 20  1  0  0  0
 20 21  1  0  0  0
 21 22  1  0  0  0
 21 54  1  0  0  0
 21 55  1  0  0  0
 22 23  1  0  0  0
 22 24  1  0  0  0
 22 56  1  0  0  0
 23 28  1  0  0  0
 24 25  1  0  0  0
 24 26  1  0  0  0
 24 57  1  0  0  0
 25 58  1  0  0  0
 26 27  1  0  0  0
 26 28  1  0  0  0
 26 59  1  0  0  0
 28 29  1  0  0  0
 28 60  1  0  0  0
 29 30  1  0  0  0
 29 33  1  0  0  0
 30 31  2  0  0  0
 30 61  1  0  0  0
 31 32  1  0  0  0
 32 33  2  0  0  0
 32 37  1  0  0  0
 33 34  1  0  0  0
 34 35  2  0  0  0
 35 36  1  0  0  0
 35 62  1  0  0  0
 36 37  2  0  0  0
 37 38  1  0  0  0
 38 63  1  0  0  0
 38 64  1  0  0  0
M  CHG  1  15  -1
M  END
> <s_m_source_file>
../4xtz_ligand.sdf

> <i_m_source_file_index>
1

> <s_epik_input>
W05IXTFDKD1PKVtOSF1bQ0BIXShbQ0BIXTEyKVtDSDJdU1tDQEhdMltDSDJdW0NIMl1bQ0gyXVtDSDJdQyg9TylbTkhdUyg9TykoPU8pT1tDSDJdW0NASF0zT1tDQEhdKFtDQEBIXShGKVtDQEBIXTNbT0hdKW4oW2NIXW40KWMoYzQ1KW5bY0hdbmM1W05IMl0=

> <s_epik_cmdline>
J2VwaWtfYXBwJywgJy1pbWFlJywgJ2xpZ2FuZF9wcm8ubWFlJywgJy1vbWFlJywgJ2xpZ2FuZF9wcmVwLm1hZScsICctbXMnLCAnMScsICctcGgnLCAnNycsICctcGh0JywgJzAuNScsICctbnQn

> <r_lp_tautomer_probability>
1

> <r_epik_Ionization_Penalty>
  0.0016

> <r_epik_Ionization_Penalty_Charging>
  0.0010

> <r_epik_Ionization_Penalty_Neutral>
  0.0006

> <r_epik_State_Penalty>
 -0.0000

> <r_epik_Charging_Adjusted_Penalty>
0.000990243802021032

> <i_epik_Tot_Q>
-1

> <i_epik_Tot_abs_Q>
1

> <s_epik_Chemistry_Notes>
This compound contains an acetal/aminal-like group ( X-CH(R)-Y where X, Y are N, S, or O) that may be acid/base labile, releasing an aldehyde.

$$$$
