4xu0_ligand
                    3D
 Schrodinger Suite 2020-3.
 68 72  0  0  1  0            999 V2000
   -8.1300   -0.5920   12.0710 C   0  0  0  0  0  0
   -5.5270   -0.7000   12.8130 C   0  0  0  0  0  0
   -5.8740   -0.4150   11.5050 C   0  0  0  0  0  0
   -7.1810   -0.3610   11.1560 N   0  0  0  0  0  0
   -3.7160   -0.4080   11.6400 C   0  0  0  0  0  0
   -7.8210   -0.8660   13.3430 N   0  0  0  0  0  0
   -6.5340   -0.9290   13.7440 C   0  0  0  0  0  0
   -2.2310   -9.9870   13.8270 C   0  0  1  0  0  0
   -1.0030   -9.2810   13.5090 N   0  0  0  0  0  0
   -0.0720   -9.4700   14.4390 C   0  0  0  0  0  0
    0.9880   -8.8630   14.5090 O   0  0  0  0  0  0
   -0.4790  -10.3820   15.3120 N   0  0  0  0  0  0
   -1.8930  -10.6480   15.1660 C   0  0  1  0  0  0
   -2.6230  -10.0170   16.3420 C   0  0  0  0  0  0
   -3.4340   -8.6160   15.6640 S   0  0  0  0  0  0
   -3.4340   -9.0580   13.9560 C   0  0  1  0  0  0
   -3.3330   -7.8770   12.9980 C   0  0  0  0  0  0
   -3.7220   -8.3490   11.6020 C   0  0  0  0  0  0
   -3.9680   -7.1740   10.6670 C   0  0  0  0  0  0
   -4.2040   -7.6430    9.2350 C   0  0  0  0  0  0
   -4.5880   -6.4550    8.3850 C   0  0  0  0  0  0
   -5.6770   -5.9280    8.5200 O   0  5  0  0  0  0
   -3.6820   -6.0400    7.5070 N   0  0  0  0  0  0
   -4.0420   -4.9340    6.4100 S   0  0  0  0  0  0
   -5.2110   -5.3340    5.6800 O   0  0  0  0  0  0
   -2.9490   -4.8000    5.4880 O   0  0  0  0  0  0
   -4.3290   -3.5770    7.0640 O   0  0  0  0  0  0
   -3.3840   -2.8950    7.8830 C   0  0  0  0  0  0
   -3.7700   -1.4220    7.8210 C   0  0  1  0  0  0
   -4.9130   -1.1590    8.6480 O   0  0  0  0  0  0
   -2.6890   -0.4610    8.2860 C   0  0  1  0  0  0
   -1.8320   -0.1090    7.1980 O   0  0  0  0  0  0
   -3.5190    0.7280    8.7190 C   0  0  2  0  0  0
   -3.9550    1.3990    7.5320 O   0  0  0  0  0  0
   -2.7520    1.7420    9.5640 C   0  0  0  0  0  0
   -4.7630    0.0870    9.3440 C   0  0  2  0  0  0
   -4.7530   -0.2250   10.8030 N   0  0  0  0  0  0
   -4.1800   -0.6880   12.8780 N   0  0  0  0  0  0
   -6.2410   -1.2140   15.0380 N   0  0  0  0  0  0
   -9.1778   -0.5560   11.7729 H   0  0  0  0  0  0
   -2.6640   -0.3408   11.3626 H   0  0  0  0  0  0
   -2.4886  -10.6782   13.0109 H   0  0  0  0  0  0
   -0.9349   -8.6832   12.5881 H   0  0  0  0  0  0
    0.1049  -10.9153   16.0767 H   0  0  0  0  0  0
   -2.1315  -11.7218   15.1777 H   0  0  0  0  0  0
   -3.3385  -10.7403   16.7602 H   0  0  0  0  0  0
   -1.8947   -9.7325   17.1157 H   0  0  0  0  0  0
   -4.3292   -9.5344   13.5297 H   0  0  0  0  0  0
   -4.0146   -7.0787   13.3270 H   0  0  0  0  0  0
   -2.3005   -7.4978   12.9910 H   0  0  0  0  0  0
   -2.9115   -8.9640   11.1838 H   0  0  0  0  0  0
   -4.6433   -8.9472   11.6606 H   0  0  0  0  0  0
   -4.8554   -6.6176   11.0030 H   0  0  0  0  0  0
   -3.0924   -6.5082   10.6766 H   0  0  0  0  0  0
   -3.2830   -8.0981    8.8417 H   0  0  0  0  0  0
   -5.0149   -8.3862    9.2215 H   0  0  0  0  0  0
   -3.4441   -3.2809    8.9113 H   0  0  0  0  0  0
   -2.3705   -3.0595    7.4883 H   0  0  0  0  0  0
   -4.0220   -1.2283    6.7679 H   0  0  0  0  0  0
   -1.9836   -0.8492    9.0355 H   0  0  0  0  0  0
   -1.1594   -0.8622    6.7617 H   0  0  0  0  0  0
   -3.2284    1.9389    6.9070 H   0  0  0  0  0  0
   -1.8897    2.1172    8.9934 H   0  0  0  0  0  0
   -2.3987    1.2580   10.4865 H   0  0  0  0  0  0
   -3.4150    2.5813    9.8210 H   0  0  0  0  0  0
   -5.6053    0.7866    9.2387 H   0  0  0  0  0  0
   -5.1923   -1.2656   15.3660 H   0  0  0  0  0  0
   -7.0522   -1.3934   15.7590 H   0  0  0  0  0  0
  1  4  2  0  0  0
  1  6  1  0  0  0
  1 40  1  0  0  0
  2  3  2  0  0  0
  2  7  1  0  0  0
  2 38  1  0  0  0
  3  4  1  0  0  0
  3 37  1  0  0  0
  5 37  1  0  0  0
  5 38  2  0  0  0
  5 41  1  0  0  0
  6  7  2  0  0  0
  7 39  1  0  0  0
  8  9  1  0  0  0
  8 13  1  0  0  0
  8 16  1  0  0  0
  8 42  1  0  0  0
  9 10  1  0  0  0
  9 43  1  0  0  0
 10 11  2  0  0  0
 10 12  1  0  0  0
 12 13  1  0  0  0
 12 44  1  0  0  0
 13 14  1  0  0  0
 13 45  1  0  0  0
 14 15  1  0  0  0
 14 46  1  0  0  0
 14 47  1  0  0  0
 15 16  1  0  0  0
 16 17  1  0  0  0
 16 48  1  0  0  0
 17 18  1  0  0  0
 17 49  1  0  0  0
 17 50  1  0  0  0
 18 19  1  0  0  0
 18 51  1  0  0  0
 18 52  1  0  0  0
 19 20  1  0  0  0
 19 53  1  0  0  0
 19 54  1  0  0  0
 20 21  1  0  0  0
 20 55  1  0  0  0
 20 56  1  0  0  0
 21 22  1  0  0  0
 21 23  2  0  0  0
 23 24  1  0  0  0
 24 25  2  0  0  0
 24 26  2  0  0  0
 24 27  1  0  0  0
 27 28  1  0  0  0
 28 29  1  0  0  0
 28 57  1  0  0  0
 28 58  1  0  0  0
 29 30  1  0  0  0
 29 31  1  0  0  0
 29 59  1  0  0  0
 30 36  1  0  0  0
 31 32  1  0  0  0
 31 33  1  0  0  0
 31 60  1  0  0  0
 32 61  1  0  0  0
 33 34  1  0  0  0
 33 35  1  0  0  0
 33 36  1  0  0  0
 34 62  1  0  0  0
 35 63  1  0  0  0
 35 64  1  0  0  0
 35 65  1  0  0  0
 36 37  1  0  0  0
 36 66  1  0  0  0
 39 67  1  0  0  0
 39 68  1  0  0  0
M  CHG  1  22  -1
M  END
> <s_m_source_file>
../4xu0_ligand.sdf

> <i_m_source_file_index>
1

> <s_epik_input>
W05IMl1jMW5bY0hdbmMoYzEyKW4oW2NIXW4yKVtDQEBIXTNPW0NAQEhdKFtDQEBIXShbT0hdKVtDQF0zKFtPSF0pW0NIM10pW0NIMl1PUyg9TykoPU8pW05IXUMoPU8pW0NIMl1bQ0gyXVtDSDJdW0NIMl1bQ0BASF00U1tDSDJdW0NAQEhdKFtDQEBIXTQ1KVtOSF1DKD1PKVtOSF01

> <s_epik_cmdline>
J2VwaWtfYXBwJywgJy1pbWFlJywgJ2xpZ2FuZF9wcm8ubWFlJywgJy1vbWFlJywgJ2xpZ2FuZF9wcmVwLm1hZScsICctbXMnLCAnMScsICctcGgnLCAnNycsICctcGh0JywgJzAuNScsICctbnQn

> <r_lp_tautomer_probability>
1

> <r_epik_Ionization_Penalty>
  0.0015

> <r_epik_Ionization_Penalty_Charging>
  0.0010

> <r_epik_Ionization_Penalty_Neutral>
  0.0005

> <r_epik_State_Penalty>
 -0.0000

> <r_epik_Charging_Adjusted_Penalty>
0.00101370248465108

> <i_epik_Tot_Q>
-1

> <i_epik_Tot_abs_Q>
1

> <s_epik_Chemistry_Notes>
This compound contains an acetal/aminal-like group ( X-CH(R)-Y where X, Y are N, S, or O) that may be acid/base labile, releasing an aldehyde.

$$$$
