4xu2_ligand
                    3D
 Schrodinger Suite 2020-3.
 65 69  0  0  1  0            999 V2000
   -8.0470   -0.8140   11.9870 C   0  0  0  0  0  0
   -5.7990   -0.4330   11.4900 C   0  0  0  0  0  0
   -5.4650   -0.6780   12.8090 C   0  0  0  0  0  0
   -6.1850   -1.2420   15.0090 N   0  0  0  0  0  0
   -3.6490   -0.2170   11.6970 C   0  0  0  0  0  0
   -2.0960  -10.0150   13.8730 C   0  0  1  0  0  0
   -0.9020   -9.2940   13.4720 N   0  0  0  0  0  0
    0.0730   -9.4240   14.3670 C   0  0  0  0  0  0
    1.1450   -8.8430   14.3300 O   0  0  0  0  0  0
   -0.2890  -10.2580   15.3310 N   0  0  0  0  0  0
   -1.7000  -10.5560   15.2470 C   0  0  1  0  0  0
   -2.3930   -9.8220   16.3840 C   0  0  0  0  0  0
   -3.4430   -8.6310   15.6350 S   0  0  0  0  0  0
   -3.3220   -9.1080   13.9450 C   0  0  1  0  0  0
   -3.2250   -7.9130   13.0030 C   0  0  0  0  0  0
   -3.5100   -8.3540   11.5690 C   0  0  0  0  0  0
   -3.7100   -7.1620   10.6370 C   0  0  0  0  0  0
   -4.0700   -7.6000    9.2210 C   0  0  0  0  0  0
   -4.4600   -6.3940    8.3920 C   0  0  0  0  0  0
   -5.5720   -5.9060    8.5050 O   0  0  0  0  0  0
   -3.5380   -5.9150    7.5560 N   0  0  0  0  0  0
   -3.9520   -4.9560    6.3400 S   0  0  0  0  0  0
   -5.1550   -5.4400    5.7230 O   0  0  0  0  0  0
   -2.9100   -4.9240    5.3510 O   0  0  0  0  0  0
   -4.2160   -3.4610    6.8410 N   0  5  0  0  0  0
   -3.4270   -2.8450    7.8890 C   0  0  0  0  0  0
   -3.7020   -1.3490    7.8220 C   0  0  1  0  0  0
   -4.8440   -1.0100    8.6150 O   0  0  0  0  0  0
   -2.5360   -0.5310    8.3590 C   0  0  0  0  0  0
   -3.2040    0.6640    9.0160 C   0  0  2  0  0  0
   -4.5940    0.1690    9.3870 C   0  0  2  0  0  0
   -4.6720   -0.1540   10.8320 N   0  0  0  0  0  0
   -4.1270   -0.5400   12.9200 N   0  0  0  0  0  0
   -7.0930   -0.5040   11.0990 N   0  0  0  0  0  0
   -7.7500   -1.0540   13.2720 N   0  0  0  0  0  0
   -6.4730   -0.9940   13.7090 C   0  0  0  0  0  0
   -3.3430    1.7090    8.0450 O   0  0  0  0  0  0
   -9.0846   -0.8722   11.6583 H   0  0  0  0  0  0
   -5.1440   -1.1921   15.3609 H   0  0  0  0  0  0
   -6.9921   -1.4933   15.7129 H   0  0  0  0  0  0
   -2.6019   -0.0370   11.4536 H   0  0  0  0  0  0
   -2.3541  -10.7858   13.1319 H   0  0  0  0  0  0
   -0.8900   -8.7329   12.5259 H   0  0  0  0  0  0
    0.3225  -10.7112   16.1251 H   0  0  0  0  0  0
   -1.9196  -11.6288   15.3513 H   0  0  0  0  0  0
   -2.9737  -10.5388   16.9831 H   0  0  0  0  0  0
   -1.6386   -9.3377   17.0215 H   0  0  0  0  0  0
   -4.1604   -9.6416   13.4735 H   0  0  0  0  0  0
   -3.9606   -7.1511   13.3003 H   0  0  0  0  0  0
   -2.2128   -7.4857   13.0558 H   0  0  0  0  0  0
   -2.6637   -8.9475   11.1929 H   0  0  0  0  0  0
   -4.4244   -8.9651   11.5482 H   0  0  0  0  0  0
   -4.5253   -6.5303   11.0195 H   0  0  0  0  0  0
   -2.7817   -6.5738   10.5896 H   0  0  0  0  0  0
   -3.2026   -8.0933    8.7581 H   0  0  0  0  0  0
   -4.9150   -8.3032    9.2584 H   0  0  0  0  0  0
   -3.7287   -3.2550    8.8641 H   0  0  0  0  0  0
   -2.3610   -3.0549    7.7169 H   0  0  0  0  0  0
   -3.9260   -1.0950    6.7754 H   0  0  0  0  0  0
   -1.9644   -1.1358    9.0784 H   0  0  0  0  0  0
   -1.8809   -0.2357    7.5261 H   0  0  0  0  0  0
   -2.6316    1.0928    9.8517 H   0  0  0  0  0  0
   -5.3757    0.9103    9.1647 H   0  0  0  0  0  0
   -2.4492    2.2069    7.6410 H   0  0  0  0  0  0
   -2.4827   -6.1853    7.7086 H   0  0  0  0  0  0
  1 34  2  0  0  0
  1 35  1  0  0  0
  1 38  1  0  0  0
  2  3  2  0  0  0
  2 32  1  0  0  0
  2 34  1  0  0  0
  3 33  1  0  0  0
  3 36  1  0  0  0
  4 36  1  0  0  0
  4 39  1  0  0  0
  4 40  1  0  0  0
  5 32  1  0  0  0
  5 33  2  0  0  0
  5 41  1  0  0  0
  6  7  1  0  0  0
  6 11  1  0  0  0
  6 14  1  0  0  0
  6 42  1  0  0  0
  7  8  1  0  0  0
  7 43  1  0  0  0
  8  9  2  0  0  0
  8 10  1  0  0  0
 10 11  1  0  0  0
 10 44  1  0  0  0
 11 12  1  0  0  0
 11 45  1  0  0  0
 12 13  1  0  0  0
 12 46  1  0  0  0
 12 47  1  0  0  0
 13 14  1  0  0  0
 14 15  1  0  0  0
 14 48  1  0  0  0
 15 16  1  0  0  0
 15 49  1  0  0  0
 15 50  1  0  0  0
 16 17  1  0  0  0
 16 51  1  0  0  0
 16 52  1  0  0  0
 17 18  1  0  0  0
 17 53  1  0  0  0
 17 54  1  0  0  0
 18 19  1  0  0  0
 18 55  1  0  0  0
 18 56  1  0  0  0
 19 20  2  0  0  0
 19 21  1  0  0  0
 21 22  1  0  0  0
 21 65  1  0  0  0
 22 23  2  0  0  0
 22 24  2  0  0  0
 22 25  1  0  0  0
 25 26  1  0  0  0
 26 27  1  0  0  0
 26 57  1  0  0  0
 26 58  1  0  0  0
 27 28  1  0  0  0
 27 29  1  0  0  0
 27 59  1  0  0  0
 28 31  1  0  0  0
 29 30  1  0  0  0
 29 60  1  0  0  0
 29 61  1  0  0  0
 30 31  1  0  0  0
 30 37  1  0  0  0
 30 62  1  0  0  0
 31 32  1  0  0  0
 31 63  1  0  0  0
 35 36  2  0  0  0
 37 64  1  0  0  0
M  CHG  1  25  -1
M  END
> <s_m_source_file>
../4xu2_ligand.sdf

> <i_m_source_file_index>
1

> <s_epik_input>
bjFbY0hdbmMoW05IMl0pYyhjMTIpbltjSF1uMltDQEBIXShbQ0BASF0oW0NIMl0zKVtPSF0pT1tDQEBIXTNbQ0gyXVtOSF1TKD1PKSg9TylbTkhdQyg9TylbQ0gyXVtDSDJdW0NIMl1bQ0gyXVtDQEBIXTRTW0NIMl1bQ0BASF0oW0NAQEhdNDUpW05IXUMoPU8pW05IXTU=

> <s_epik_cmdline>
J2VwaWtfYXBwJywgJy1pbWFlJywgJ2xpZ2FuZF9wcm8ubWFlJywgJy1vbWFlJywgJ2xpZ2FuZF9wcmVwLm1hZScsICctbXMnLCAnMScsICctcGgnLCAnNycsICctcGh0JywgJzAuNScsICctbnQn

> <r_lp_tautomer_probability>
0.999997216410988

> <r_epik_Ionization_Penalty>
  0.0754

> <r_epik_Ionization_Penalty_Charging>
  0.0287

> <r_epik_Ionization_Penalty_Neutral>
  0.0467

> <r_epik_State_Penalty>
  0.0613

> <r_epik_Charging_Adjusted_Penalty>
0.0900629215662428

> <i_epik_Tot_Q>
-1

> <i_epik_Tot_abs_Q>
1

> <s_epik_Chemistry_Notes>
This compound contains an acetal/aminal-like group ( X-CH(R)-Y where X, Y are N, S, or O) that may be acid/base labile, releasing an aldehyde.

$$$$
