4xu3_ligand
                    3D
 Schrodinger Suite 2020-3.
 60 63  0  0  1  0            999 V2000
   -7.9830   -0.8360   11.9430 C   0  0  0  0  0  0
   -5.7150   -0.4180   11.5860 C   0  0  0  0  0  0
   -5.4690   -0.6170   12.9330 C   0  0  0  0  0  0
   -6.5280   -0.9260   13.7730 C   0  0  0  0  0  0
   -7.7710   -1.0270   13.2540 N   0  0  0  0  0  0
   -6.9770   -0.5360   11.1110 N   0  0  0  0  0  0
   -3.5890   -0.1560   11.9390 C   0  0  0  0  0  0
   -2.1730  -10.0380   13.8600 C   0  0  1  0  0  0
   -0.9670   -9.3290   13.4760 N   0  0  0  0  0  0
   -0.0140   -9.4500   14.3960 C   0  0  0  0  0  0
    1.0770   -8.9030   14.3530 O   0  0  0  0  0  0
   -0.4160  -10.2370   15.3830 N   0  0  0  0  0  0
   -1.8200  -10.5520   15.2570 C   0  0  1  0  0  0
   -2.5620   -9.8080   16.3550 C   0  0  0  0  0  0
   -3.5920   -8.6430   15.5470 S   0  0  0  0  0  0
   -3.3920   -9.1210   13.8700 C   0  0  1  0  0  0
   -3.2120   -7.9110   12.9660 C   0  0  0  0  0  0
   -3.5580   -8.2950   11.5330 C   0  0  0  0  0  0
   -3.6830   -7.0670   10.6420 C   0  0  0  0  0  0
   -4.0790   -7.4760    9.2300 C   0  0  0  0  0  0
   -4.4590   -6.2530    8.4300 C   0  0  0  0  0  0
   -5.5420   -5.7230    8.6110 O   0  0  0  0  0  0
   -3.5600   -5.8220    7.5460 N   0  0  0  0  0  0
   -3.9540   -4.7650    6.4070 S   0  0  0  0  0  0
   -5.3130   -4.9670    5.9900 O   0  0  0  0  0  0
   -3.0940   -4.9340    5.2690 O   0  0  0  0  0  0
   -3.7760   -3.2690    6.9390 N   0  5  0  0  0  0
   -3.0680   -3.0040    8.1730 C   0  0  0  0  0  0
   -3.0370   -1.5120    8.4790 C   0  0  0  0  0  0
   -4.3340   -1.1330    8.9250 O   0  0  0  0  0  0
   -4.3460    0.1310    9.5830 C   0  0  0  0  0  0
   -4.5470   -0.1430   11.0020 N   0  0  0  0  0  0
   -4.1470   -0.4490   13.1340 N   0  0  0  0  0  0
   -6.3170   -1.1230   15.0980 N   0  0  0  0  0  0
   -8.9944   -0.9268   11.5469 H   0  0  0  0  0  0
   -2.5307    0.0384   11.7651 H   0  0  0  0  0  0
   -2.4145  -10.8278   13.1334 H   0  0  0  0  0  0
   -0.9303   -8.7827   12.5220 H   0  0  0  0  0  0
    0.1656  -10.6435   16.2236 H   0  0  0  0  0  0
   -2.0308  -11.6251   15.3750 H   0  0  0  0  0  0
   -3.1576  -10.5214   16.9434 H   0  0  0  0  0  0
   -1.8369   -9.3059   17.0124 H   0  0  0  0  0  0
   -4.2077   -9.6455   13.3509 H   0  0  0  0  0  0
   -3.8772   -7.1013   13.3004 H   0  0  0  0  0  0
   -2.1672   -7.5702   13.0132 H   0  0  0  0  0  0
   -2.7671   -8.9420   11.1257 H   0  0  0  0  0  0
   -4.5165   -8.8345   11.5192 H   0  0  0  0  0  0
   -4.4522   -6.3948   11.0499 H   0  0  0  0  0  0
   -2.7179   -6.5405   10.6057 H   0  0  0  0  0  0
   -3.2312   -7.9799    8.7429 H   0  0  0  0  0  0
   -4.9374   -8.1625    9.2742 H   0  0  0  0  0  0
   -3.5706   -3.5226    9.0027 H   0  0  0  0  0  0
   -2.0331   -3.3667    8.0871 H   0  0  0  0  0  0
   -2.2907   -1.3138    9.2625 H   0  0  0  0  0  0
   -2.7689   -0.9564    7.5683 H   0  0  0  0  0  0
   -3.3868    0.6419    9.4131 H   0  0  0  0  0  0
   -5.1650    0.7457    9.1813 H   0  0  0  0  0  0
   -5.3012   -1.0387   15.5117 H   0  0  0  0  0  0
   -7.1616   -1.3671   15.7591 H   0  0  0  0  0  0
   -2.5309   -6.2054    7.6083 H   0  0  0  0  0  0
  1  5  1  0  0  0
  1  6  2  0  0  0
  1 35  1  0  0  0
  2  3  2  0  0  0
  2  6  1  0  0  0
  2 32  1  0  0  0
  3  4  1  0  0  0
  3 33  1  0  0  0
  4  5  2  0  0  0
  4 34  1  0  0  0
  7 32  1  0  0  0
  7 33  2  0  0  0
  7 36  1  0  0  0
  8  9  1  0  0  0
  8 13  1  0  0  0
  8 16  1  0  0  0
  8 37  1  0  0  0
  9 10  1  0  0  0
  9 38  1  0  0  0
 10 11  2  0  0  0
 10 12  1  0  0  0
 12 13  1  0  0  0
 12 39  1  0  0  0
 13 14  1  0  0  0
 13 40  1  0  0  0
 14 15  1  0  0  0
 14 41  1  0  0  0
 14 42  1  0  0  0
 15 16  1  0  0  0
 16 17  1  0  0  0
 16 43  1  0  0  0
 17 18  1  0  0  0
 17 44  1  0  0  0
 17 45  1  0  0  0
 18 19  1  0  0  0
 18 46  1  0  0  0
 18 47  1  0  0  0
 19 20  1  0  0  0
 19 48  1  0  0  0
 19 49  1  0  0  0
 20 21  1  0  0  0
 20 50  1  0  0  0
 20 51  1  0  0  0
 21 22  2  0  0  0
 21 23  1  0  0  0
 23 24  1  0  0  0
 23 60  1  0  0  0
 24 25  2  0  0  0
 24 26  2  0  0  0
 24 27  1  0  0  0
 27 28  1  0  0  0
 28 29  1  0  0  0
 28 52  1  0  0  0
 28 53  1  0  0  0
 29 30  1  0  0  0
 29 54  1  0  0  0
 29 55  1  0  0  0
 30 31  1  0  0  0
 31 32  1  0  0  0
 31 56  1  0  0  0
 31 57  1  0  0  0
 34 58  1  0  0  0
 34 59  1  0  0  0
M  CHG  1  27  -1
M  END
> <s_m_source_file>
../4xu3_ligand.sdf

> <i_m_source_file_index>
1

> <s_epik_input>
bjFbY0hdbmMoW05IMl0pYyhjMTIpbltjSF1uMltDSDJdT1tDSDJdW0NIMl1bTkhdUyg9TykoPU8pW05IXUMoPU8pW0NIMl1bQ0gyXVtDSDJdW0NIMl1bQ0BASF0zU1tDSDJdW0NAQEhdKFtDQEBIXTM0KVtOSF1DKD1PKVtOSF00

> <s_epik_cmdline>
J2VwaWtfYXBwJywgJy1pbWFlJywgJ2xpZ2FuZF9wcm8ubWFlJywgJy1vbWFlJywgJ2xpZ2FuZF9wcmVwLm1hZScsICctbXMnLCAnMScsICctcGgnLCAnNycsICctcGh0JywgJzAuNScsICctbnQn

> <r_lp_tautomer_probability>
0.999997216410988

> <r_epik_Ionization_Penalty>
  0.0822

> <r_epik_Ionization_Penalty_Charging>
  0.0354

> <r_epik_Ionization_Penalty_Neutral>
  0.0468

> <r_epik_State_Penalty>
  0.0668

> <r_epik_Charging_Adjusted_Penalty>
0.102203878259998

> <i_epik_Tot_Q>
-1

> <i_epik_Tot_abs_Q>
1

> <s_epik_Chemistry_Notes>
This compound contains an acetal/aminal-like group ( X-CH(R)-Y where X, Y are N, S, or O) that may be acid/base labile, releasing an aldehyde.

$$$$
