4xua_ligand
                    3D
 Schrodinger Suite 2020-3.
 45 48  0  0  1  0            999 V2000
   72.5370   37.0250    4.0010 C   0  0  0  0  0  0
   72.4180   38.3070    3.2060 C   0  0  0  0  0  0
   73.1530   38.5950    2.1350 C   0  0  0  0  0  0
   71.5480   39.2940    3.4460 N   0  0  0  0  0  0
   71.7230   40.1460    2.5730 N   0  0  0  0  0  0
   72.6930   39.7800    1.7360 N   0  0  0  0  0  0
   73.0880   40.6780    0.6220 C   0  0  0  0  0  0
   72.7070   40.0420   -0.7140 C   0  0  0  0  0  0
   71.2240   40.1480   -0.8530 N   0  0  0  0  0  0
   70.6380   41.2330   -1.3080 C   0  0  0  0  0  0
   69.2960   41.0750   -1.3000 N   0  0  0  0  0  0
   69.0420   39.8310   -0.8140 C   0  0  0  0  0  0
   67.7680   39.3710   -0.7060 C   0  0  0  0  0  0
   66.7390   40.2780   -0.6830 C   0  0  0  0  0  0
   65.4120   39.9320   -0.6400 C   0  0  0  0  0  0
   65.1000   38.5900   -0.5400 C   0  0  0  0  0  0
   66.1210   37.6600   -0.5260 C   0  0  0  0  0  0
   67.4260   38.0060   -0.6440 C   0  0  0  0  0  0
   70.2290   39.2530   -0.5110 C   0  0  0  0  0  0
   70.4410   38.0060   -0.0010 C   0  0  0  0  0  0
   69.8060   37.6270    1.2070 C   0  0  0  0  0  0
   70.0070   36.3650    1.7570 C   0  0  0  0  0  0
   70.8340   35.4570    1.1250 C   0  0  0  0  0  0
   71.0280   34.1100    1.6740 C   0  0  0  0  0  0
   71.1670   33.0910    2.0990 N   0  0  0  0  0  0
   71.4510   35.8040   -0.0850 C   0  0  0  0  0  0
   71.2520   37.0750   -0.6390 C   0  0  0  0  0  0
   73.3372   36.4021    3.5747 H   0  0  0  0  0  0
   71.5839   36.4774    3.9585 H   0  0  0  0  0  0
   72.7764   37.2636    5.0478 H   0  0  0  0  0  0
   73.9482   37.9989    1.6873 H   0  0  0  0  0  0
   72.5696   41.6425    0.7271 H   0  0  0  0  0  0
   74.1754   40.8412    0.6506 H   0  0  0  0  0  0
   73.2096   40.5787   -1.5321 H   0  0  0  0  0  0
   73.0198   38.9874   -0.7206 H   0  0  0  0  0  0
   71.1589   42.1299   -1.6431 H   0  0  0  0  0  0
   66.9910   41.3383   -0.6999 H   0  0  0  0  0  0
   64.6303   40.6904   -0.6833 H   0  0  0  0  0  0
   64.0605   38.2689   -0.4729 H   0  0  0  0  0  0
   65.8671   36.6058   -0.4156 H   0  0  0  0  0  0
   68.1995   37.2394   -0.6902 H   0  0  0  0  0  0
   69.1498   38.3349    1.7134 H   0  0  0  0  0  0
   69.5109   36.0923    2.6885 H   0  0  0  0  0  0
   72.0878   35.0822   -0.5965 H   0  0  0  0  0  0
   71.7377   37.3363   -1.5792 H   0  0  0  0  0  0
  1  2  1  0  0  0
  1 28  1  0  0  0
  1 29  1  0  0  0
  1 30  1  0  0  0
  2  3  2  0  0  0
  2  4  1  0  0  0
  3  6  1  0  0  0
  3 31  1  0  0  0
  4  5  2  0  0  0
  5  6  1  0  0  0
  6  7  1  0  0  0
  7  8  1  0  0  0
  7 32  1  0  0  0
  7 33  1  0  0  0
  8  9  1  0  0  0
  8 34  1  0  0  0
  8 35  1  0  0  0
  9 10  1  0  0  0
  9 19  1  0  0  0
 10 11  2  0  0  0
 10 36  1  0  0  0
 11 12  1  0  0  0
 12 13  1  0  0  0
 12 19  2  0  0  0
 13 14  2  0  0  0
 13 18  1  0  0  0
 14 15  1  0  0  0
 14 37  1  0  0  0
 15 16  2  0  0  0
 15 38  1  0  0  0
 16 17  1  0  0  0
 16 39  1  0  0  0
 17 18  2  0  0  0
 17 40  1  0  0  0
 18 41  1  0  0  0
 19 20  1  0  0  0
 20 21  2  0  0  0
 20 27  1  0  0  0
 21 22  1  0  0  0
 21 42  1  0  0  0
 22 23  2  0  0  0
 22 43  1  0  0  0
 23 24  1  0  0  0
 23 26  1  0  0  0
 24 25  3  0  0  0
 26 27  2  0  0  0
 26 44  1  0  0  0
 27 45  1  0  0  0
M  END
> <s_m_source_file>
../4xua_ligand.sdf

> <i_m_source_file_index>
1

> <s_epik_input>
W0NIM11jMVtjSF1uKG5uMSlbQ0gyXVtDSDJdbjJbY0hdbmMoLWMzW2NIXVtjSF1bY0hdW2NIXVtjSF0zKWMyLWM0W2NIXVtjSF1jKEMjTilbY0hdW2NIXTQ=

> <s_epik_cmdline>
J2VwaWtfYXBwJywgJy1pbWFlJywgJ2xpZ2FuZF9wcm8ubWFlJywgJy1vbWFlJywgJ2xpZ2FuZF9wcmVwLm1hZScsICctbXMnLCAnMScsICctcGgnLCAnNycsICctcGh0JywgJzAuNScsICctbnQn

> <r_lp_tautomer_probability>
1

> <r_epik_Ionization_Penalty>
  0.0380

> <r_epik_Ionization_Penalty_Charging>
  0.0380

> <r_epik_Ionization_Penalty_Neutral>
  0.0000

> <r_epik_State_Penalty>
  0.0318

> <r_epik_Charging_Adjusted_Penalty>
0.0698276493951579

> <i_epik_Tot_Q>
0

> <i_epik_Tot_abs_Q>
0

$$$$
