4xub_ligand
                    3D
 Schrodinger Suite 2020-3.
 47 50  0  0  1  0            999 V2000
   72.0600   37.2560    4.3280 C   0  0  0  0  0  0
   71.9590   38.5440    3.5010 C   0  0  0  0  0  0
   72.7200   38.8960    2.4680 C   0  0  0  0  0  0
   71.0480   39.5000    3.7110 N   0  0  0  0  0  0
   71.2500   40.4430    2.8300 N   0  0  0  0  0  0
   72.2440   40.0940    2.0640 N   0  0  0  0  0  0
   72.6390   41.0320    0.9740 C   0  0  0  0  0  0
   72.3350   40.4860   -0.4560 C   0  0  0  0  0  0
   70.8230   40.5360   -0.6650 N   0  0  0  0  0  0
   70.2100   41.6420   -1.0870 C   0  0  0  0  0  0
   68.8790   41.4320   -1.1510 N   0  0  0  0  0  0
   68.6600   40.1800   -0.6920 C   0  0  0  0  0  0
   67.3910   39.6480   -0.6970 C   0  0  0  0  0  0
   67.1060   38.3500   -0.8210 C   0  0  0  0  0  0
   66.2440   40.3250   -0.7250 C   0  0  0  0  0  0
   65.2210   39.4470   -0.8120 N   0  0  0  0  0  0
   65.7960   38.2210   -0.8740 N   0  0  0  0  0  0
   65.0560   36.9700   -0.9860 C   0  0  0  0  0  0
   69.8610   39.6170   -0.4000 C   0  0  0  0  0  0
   70.1050   38.3540    0.0900 C   0  0  0  0  0  0
   69.4470   37.9430    1.2470 C   0  0  0  0  0  0
   69.6110   36.6930    1.8220 C   0  0  0  0  0  0
   70.4700   35.7980    1.2380 C   0  0  0  0  0  0
   70.6850   34.5310    1.7560 C   0  0  0  0  0  0
   70.8520   33.4060    2.2390 N   0  0  0  0  0  0
   71.1920   36.1800    0.0740 C   0  0  0  0  0  0
   71.0110   37.4620   -0.4790 C   0  0  0  0  0  0
   72.8911   36.6422    3.9506 H   0  0  0  0  0  0
   71.1196   36.6916    4.2439 H   0  0  0  0  0  0
   72.2417   37.5107    5.3826 H   0  0  0  0  0  0
   73.5511   38.3365    2.0388 H   0  0  0  0  0  0
   72.0912   41.9789    1.0887 H   0  0  0  0  0  0
   73.7205   41.2249    1.0303 H   0  0  0  0  0  0
   72.8439   41.1123   -1.2035 H   0  0  0  0  0  0
   72.6969   39.4505   -0.5377 H   0  0  0  0  0  0
   70.7097   42.5765   -1.3422 H   0  0  0  0  0  0
   67.8312   37.5377   -0.8699 H   0  0  0  0  0  0
   66.1468   41.4099   -0.6844 H   0  0  0  0  0  0
   65.7626   36.1276   -1.0172 H   0  0  0  0  0  0
   64.4564   36.9800   -1.9082 H   0  0  0  0  0  0
   64.3906   36.8586   -0.1172 H   0  0  0  0  0  0
   68.7646   38.6443    1.7271 H   0  0  0  0  0  0
   69.0646   36.4249    2.7262 H   0  0  0  0  0  0
   71.3297   34.8784    0.9353 H   0  0  0  0  0  0
   70.2073   33.0586    3.0597 H   0  0  0  0  0  0
   71.8862   35.4797   -0.3905 H   0  0  0  0  0  0
   71.5834   37.7584   -1.3579 H   0  0  0  0  0  0
  1  2  1  0  0  0
  1 28  1  0  0  0
  1 29  1  0  0  0
  1 30  1  0  0  0
  2  3  2  0  0  0
  2  4  1  0  0  0
  3  6  1  0  0  0
  3 31  1  0  0  0
  4  5  2  0  0  0
  5  6  1  0  0  0
  6  7  1  0  0  0
  7  8  1  0  0  0
  7 32  1  0  0  0
  7 33  1  0  0  0
  8  9  1  0  0  0
  8 34  1  0  0  0
  8 35  1  0  0  0
  9 10  1  0  0  0
  9 19  1  0  0  0
 10 11  2  0  0  0
 10 36  1  0  0  0
 11 12  1  0  0  0
 12 13  1  0  0  0
 12 19  2  0  0  0
 13 14  2  0  0  0
 13 15  1  0  0  0
 14 17  1  0  0  0
 14 37  1  0  0  0
 15 16  2  0  0  0
 15 38  1  0  0  0
 16 17  1  0  0  0
 17 18  1  0  0  0
 18 39  1  0  0  0
 18 40  1  0  0  0
 18 41  1  0  0  0
 19 20  1  0  0  0
 20 21  2  0  0  0
 20 27  1  0  0  0
 21 22  1  0  0  0
 21 42  1  0  0  0
 22 23  2  0  0  0
 22 43  1  0  0  0
 23 24  1  0  0  0
 23 26  1  0  0  0
 24 25  2  0  0  0
 24 44  1  0  0  0
 25 45  1  0  0  0
 26 27  2  0  0  0
 26 46  1  0  0  0
 27 47  1  0  0  0
M  END
> <s_m_source_file>
../4xub_ligand.sdf

> <i_m_source_file_index>
1

> <s_epik_input>
W0NIM11jMVtjSF1uKG5uMSlbQ0gyXVtDSDJdbjJbY0hdbmMoLWMzW2NIXW4oW0NIM10pbltjSF0zKWMyLWM0W2NIXVtjSF1jKC9bQ0hdPU5cW0hdKVtjSF1bY0hdNA==

> <s_epik_cmdline>
J2VwaWtfYXBwJywgJy1pbWFlJywgJ2xpZ2FuZF9wcm8ubWFlJywgJy1vbWFlJywgJ2xpZ2FuZF9wcmVwLm1hZScsICctbXMnLCAnMScsICctcGgnLCAnNycsICctcGh0JywgJzAuNScsICctbnQn

> <r_lp_tautomer_probability>
1

> <r_epik_Ionization_Penalty>
  0.0398

> <r_epik_Ionization_Penalty_Charging>
  0.0398

> <r_epik_Ionization_Penalty_Neutral>
  0.0000

> <r_epik_State_Penalty>
  0.0334

> <r_epik_Charging_Adjusted_Penalty>
0.0731701243630243

> <i_epik_Tot_Q>
0

> <i_epik_Tot_abs_Q>
0

> <s_epik_Chemistry_Notes>
This compound has an imine and may undergo hydrolysis.

$$$$
