4xuc_ligand
                    3D
 Schrodinger Suite 2020-3.
 35 37  0  0  1  0            999 V2000
   -7.9990    4.3670  -23.3790 C   0  0  0  0  0  0
   -8.0180    3.5030  -24.4860 C   0  0  0  0  0  0
   -7.2670    2.3630  -24.5390 N   0  0  0  0  0  0
   -6.5110    2.0550  -23.4500 C   0  0  0  0  0  0
   -6.4220    2.8530  -22.2960 C   0  0  0  0  0  0
   -7.2080    4.0130  -22.2700 C   0  0  1  0  0  0
   -7.1850    4.7980  -21.2000 O   0  0  0  0  0  0
   -8.7420    5.5050  -23.3640 O   0  0  0  0  0  0
   -7.3550    1.5440  -25.6070 C   0  0  0  0  0  0
   -7.3520    1.9820  -26.9370 C   0  0  0  0  0  0
   -7.4900    1.1080  -28.0080 C   0  0  0  0  0  0
   -7.6540   -0.2500  -27.7270 C   0  0  0  0  0  0
   -7.7000   -0.7370  -26.4200 C   0  0  0  0  0  0
   -7.5580    0.1720  -25.3780 C   0  0  0  0  0  0
   -7.4750    1.6010  -29.4120 C   0  0  0  0  0  0
   -8.3600    1.0290  -30.3380 C   0  0  0  0  0  0
   -8.4130    1.4660  -31.6600 C   0  0  0  0  0  0
   -7.5660    2.4940  -32.0550 C   0  0  0  0  0  0
   -6.6790    3.0700  -31.1530 C   0  0  0  0  0  0
   -6.6300    2.6230  -29.8190 C   0  0  0  0  0  0
   -8.6542    3.7340  -25.3531 H   0  0  0  0  0  0
   -5.9464    1.1130  -23.5122 H   0  0  0  0  0  0
   -5.7587    2.5546  -21.4708 H   0  0  0  0  0  0
   -8.0473    3.4350  -21.8559 H   0  0  0  0  0  0
   -7.7997    5.7099  -21.1735 H   0  0  0  0  0  0
   -9.3567    5.7721  -24.2363 H   0  0  0  0  0  0
   -7.2373    3.0469  -27.1392 H   0  0  0  0  0  0
   -7.7491   -0.9522  -28.5552 H   0  0  0  0  0  0
   -7.8431   -1.7993  -26.2220 H   0  0  0  0  0  0
   -7.6056   -0.1904  -24.3511 H   0  0  0  0  0  0
   -9.0212    0.2245  -30.0160 H   0  0  0  0  0  0
   -9.1044    1.0110  -32.3693 H   0  0  0  0  0  0
   -7.5974    2.8529  -33.0838 H   0  0  0  0  0  0
   -6.0177    3.8722  -31.4804 H   0  0  0  0  0  0
   -5.9345    3.0758  -29.1124 H   0  0  0  0  0  0
  1  2  2  0  0  0
  1  6  1  0  0  0
  1  8  1  0  0  0
  2  3  1  0  0  0
  2 21  1  0  0  0
  3  4  1  0  0  0
  3  9  1  0  0  0
  4  5  2  0  0  0
  4 22  1  0  0  0
  5  6  1  0  0  0
  5 23  1  0  0  0
  6  7  1  0  0  0
  6 24  1  0  0  0
  7 25  1  0  0  0
  8 26  1  0  0  0
  9 10  2  0  0  0
  9 14  1  0  0  0
 10 11  1  0  0  0
 10 27  1  0  0  0
 11 12  2  0  0  0
 11 15  1  0  0  0
 12 13  1  0  0  0
 12 28  1  0  0  0
 13 14  2  0  0  0
 13 29  1  0  0  0
 14 30  1  0  0  0
 15 16  2  0  0  0
 15 20  1  0  0  0
 16 17  1  0  0  0
 16 31  1  0  0  0
 17 18  2  0  0  0
 17 32  1  0  0  0
 18 19  1  0  0  0
 18 33  1  0  0  0
 19 20  2  0  0  0
 19 34  1  0  0  0
 20 35  1  0  0  0
M  END
> <s_m_source_file>
../4xuc_ligand.sdf

> <i_m_source_file_index>
1

> <s_epik_input>
W09IXVtDQEBIXTFbQ0hdPVtDSF1OKFtDSF09QzFbT0hdKWMyW2NIXWMoW2NIXVtjSF1bY0hdMiktYzNbY0hdW2NIXVtjSF1bY0hdW2NIXTM=

> <s_epik_cmdline>
J2VwaWtfYXBwJywgJy1pbWFlJywgJ2xpZ2FuZF9wcm8ubWFlJywgJy1vbWFlJywgJ2xpZ2FuZF9wcmVwLm1hZScsICctbXMnLCAnMScsICctcGgnLCAnNycsICctcGh0JywgJzAuNScsICctbnQn

> <r_lp_tautomer_probability>
1

> <r_epik_Ionization_Penalty>
  0.0000

> <r_epik_Ionization_Penalty_Charging>
  0.0000

> <r_epik_Ionization_Penalty_Neutral>
  0.0000

> <r_epik_State_Penalty>
 -0.0000

> <r_epik_Charging_Adjusted_Penalty>
1.31558268068321e-16

> <i_epik_Tot_Q>
0

> <i_epik_Tot_abs_Q>
0

> <s_epik_Chemistry_Notes>
This compound has an imine and may undergo hydrolysis.

$$$$
