4xue_ligand
                    3D
 Schrodinger Suite 2020-3.
 37 39  0  0  1  0            999 V2000
   14.2560   -7.3820   -3.9810 C   0  0  0  0  0  0
   13.0730   -9.8070   -0.5430 C   0  0  0  0  0  0
   13.9510  -10.7650   -0.0270 C   0  0  0  0  0  0
   11.8380   -9.6630    0.1130 C   0  0  0  0  0  0
   11.4850  -10.4510    1.2160 C   0  0  0  0  0  0
   12.3880  -11.4060    1.7080 C   0  0  0  0  0  0
   13.6840   -6.7860   -2.8400 C   0  0  0  0  0  0
   13.4670   -8.9590   -1.7360 C   0  0  0  0  0  0
   16.2030  -10.8440   -7.2200 C   0  0  0  0  0  0
   14.4240   -8.7770   -3.9890 C   0  0  0  0  0  0
   15.0340   -9.5210   -5.1500 C   0  0  0  0  0  0
   16.2880   -9.1780   -5.5130 N   0  3  0  0  0  0
   16.8690   -9.8290   -6.5420 C   0  0  0  0  0  0
   14.9080  -11.1910   -6.8200 C   0  0  1  0  0  0
   14.3430  -10.5020   -5.7820 N   0  0  0  0  0  0
   14.3310  -12.1760   -7.4950 O   0  5  0  0  0  0
   16.7600  -11.5240   -8.2330 O   0  0  0  0  0  0
   12.9770  -10.8750   -5.4070 C   0  0  0  0  0  0
   14.0370   -9.5380   -2.8760 C   0  0  0  0  0  0
   13.3090   -7.5720   -1.7450 C   0  0  0  0  0  0
   13.6300  -11.5610    1.0820 C   0  0  0  0  0  0
   14.5602   -6.7770   -4.8351 H   0  0  0  0  0  0
   14.9216  -10.8982   -0.5048 H   0  0  0  0  0  0
   11.1328   -8.9144   -0.2481 H   0  0  0  0  0  0
   10.5122  -10.3229    1.6906 H   0  0  0  0  0  0
   12.1247  -12.0207    2.5688 H   0  0  0  0  0  0
   13.5328   -5.7070   -2.8100 H   0  0  0  0  0  0
   17.8882   -9.5439   -6.8420 H   0  0  0  0  0  0
   15.3231  -11.9210   -6.1095 H   0  0  0  0  0  0
   12.6440  -10.2496   -4.5656 H   0  0  0  0  0  0
   12.9548  -11.9335   -5.1084 H   0  0  0  0  0  0
   12.3064  -10.7221   -6.2654 H   0  0  0  0  0  0
   14.1852  -10.6176   -2.8996 H   0  0  0  0  0  0
   12.8791   -7.0851   -0.8697 H   0  0  0  0  0  0
   14.3436  -12.2961    1.4542 H   0  0  0  0  0  0
   16.8182   -8.3800   -4.9725 H   0  0  0  0  0  0
   17.7769  -11.2740   -8.5699 H   0  0  0  0  0  0
  1  7  2  0  0  0
  1 10  1  0  0  0
  1 22  1  0  0  0
  2  3  2  0  0  0
  2  4  1  0  0  0
  2  8  1  0  0  0
  3 21  1  0  0  0
  3 23  1  0  0  0
  4  5  2  0  0  0
  4 24  1  0  0  0
  5  6  1  0  0  0
  5 25  1  0  0  0
  6 21  2  0  0  0
  6 26  1  0  0  0
  7 20  1  0  0  0
  7 27  1  0  0  0
  8 19  1  0  0  0
  8 20  2  0  0  0
  9 13  2  0  0  0
  9 14  1  0  0  0
  9 17  1  0  0  0
 10 11  1  0  0  0
 10 19  2  0  0  0
 11 12  2  0  0  0
 11 15  1  0  0  0
 12 13  1  0  0  0
 12 36  1  0  0  0
 13 28  1  0  0  0
 14 15  1  0  0  0
 14 16  1  0  0  0
 14 29  1  0  0  0
 15 18  1  0  0  0
 17 37  1  0  0  0
 18 30  1  0  0  0
 18 31  1  0  0  0
 18 32  1  0  0  0
 19 33  1  0  0  0
 20 34  1  0  0  0
 21 35  1  0  0  0
M  CHG  2  12   1  16  -1
M  END
> <s_m_source_file>
../4xue_ligand.sdf

> <i_m_source_file_index>
1

> <s_epik_input>
W09IXUMxPVtDSF1OPUMoTihbQ0gzXSlbQ0hdMVtPSF0pYyhbY0hdW2NIXVtjSF0yKVtjSF1jMi1jM1tjSF1bY0hdW2NIXVtjSF1bY0hdMw==

> <s_epik_cmdline>
J2VwaWtfYXBwJywgJy1pbWFlJywgJ2xpZ2FuZF9wcm8ubWFlJywgJy1vbWFlJywgJ2xpZ2FuZF9wcmVwLm1hZScsICctbXMnLCAnMScsICctcGgnLCAnNycsICctcGh0JywgJzAuNScsICctbnQn

> <r_lp_tautomer_probability>
1

> <r_epik_Ionization_Penalty>
  0.0756

> <r_epik_Ionization_Penalty_Charging>
  0.0004

> <r_epik_Ionization_Penalty_Neutral>
  0.0751

> <r_epik_State_Penalty>
 -0.0000

> <r_epik_Charging_Adjusted_Penalty>
0.000447436781501377

> <i_epik_Tot_Q>
0

> <i_epik_Tot_abs_Q>
2

> <s_epik_Chemistry_Notes>
This compound has an imine and may undergo hydrolysis. This compound contains an acetal/aminal-like group ( X-CH(R)-Y where X, Y are N, S, or O) that may be acid/base labile, releasing an aldehyde.

$$$$
