4xuz_ligand
                    3D
 Schrodinger Suite 2020-3.
 35 36  0  0  1  0            999 V2000
   44.4940   48.4720   10.8510 C   0  0  0  0  0  0
   42.1420   47.6710   11.0480 C   0  0  0  0  0  0
   43.8470   49.0820   11.9340 C   0  0  0  0  0  0
   40.1070   46.4530   11.9160 C   0  0  0  0  0  0
   37.5530   44.9670   12.7140 C   0  0  0  0  0  0
   37.0070   44.2760   11.4600 C   0  0  0  0  0  0
   37.1380   42.7900   11.5350 C   0  0  1  0  0  0
   36.5670   42.0770   10.3430 C   0  0  0  0  0  0
   36.7760   39.8260    9.5450 O   0  5  0  0  0  0
   36.4770   40.5630   10.5270 C   0  0  0  0  0  0
   36.0730   40.1000   11.6020 O   0  0  0  0  0  0
   38.3890   42.3370   11.9120 O   0  0  0  0  0  0
   39.1070   42.9480   12.9600 B   0  0  0  0  0  0
   40.5210   42.5540   12.8440 O   0  0  0  0  0  0
   38.9420   44.5420   12.9080 C   0  0  1  0  0  0
   39.8550   45.1430   12.0080 N   0  0  0  0  0  0
   39.7210   47.2800   12.7150 O   0  0  0  0  0  0
   40.9040   46.8840   10.6750 C   0  0  0  0  0  0
   43.4760   47.4340   10.0540 S   0  0  0  0  0  0
   42.4610   48.6310   12.0650 C   0  0  0  0  0  0
   45.5308   48.6558   10.5694 H   0  0  0  0  0  0
   44.3192   49.8053   12.5988 H   0  0  0  0  0  0
   37.5082   46.0579   12.5804 H   0  0  0  0  0  0
   36.9460   44.6791   13.5850 H   0  0  0  0  0  0
   35.9410   44.5203   11.3415 H   0  0  0  0  0  0
   37.5634   44.6247   10.5775 H   0  0  0  0  0  0
   36.5858   42.4681   12.4302 H   0  0  0  0  0  0
   35.5497   42.4469   10.1471 H   0  0  0  0  0  0
   37.2013   42.2657    9.4643 H   0  0  0  0  0  0
   40.7988   41.4898   12.8630 H   0  0  0  0  0  0
   39.2208   45.0513   13.8423 H   0  0  0  0  0  0
   40.4277   44.5184   11.3066 H   0  0  0  0  0  0
   40.2513   47.5048   10.0436 H   0  0  0  0  0  0
   41.1973   45.9798   10.1215 H   0  0  0  0  0  0
   41.7663   48.9771   12.8304 H   0  0  0  0  0  0
  1  3  2  0  0  0
  1 19  1  0  0  0
  1 21  1  0  0  0
  2 18  1  0  0  0
  2 19  1  0  0  0
  2 20  2  0  0  0
  3 20  1  0  0  0
  3 22  1  0  0  0
  4 16  1  0  0  0
  4 17  2  0  0  0
  4 18  1  0  0  0
  5  6  1  0  0  0
  5 15  1  0  0  0
  5 23  1  0  0  0
  5 24  1  0  0  0
  6  7  1  0  0  0
  6 25  1  0  0  0
  6 26  1  0  0  0
  7  8  1  0  0  0
  7 12  1  0  0  0
  7 27  1  0  0  0
  8 10  1  0  0  0
  8 28  1  0  0  0
  8 29  1  0  0  0
  9 10  1  0  0  0
 10 11  2  0  0  0
 12 13  1  0  0  0
 13 14  1  0  0  0
 13 15  1  0  0  0
 14 30  1  0  0  0
 15 16  1  0  0  0
 15 31  1  0  0  0
 16 32  1  0  0  0
 18 33  1  0  0  0
 18 34  1  0  0  0
 20 35  1  0  0  0
M  CHG  1   9  -1
M  END
> <s_m_source_file>
../4xuz_ligand.sdf

> <i_m_source_file_index>
1

> <s_epik_input>
W2NIXTFbY0hdW2NIXXNjMVtDSDJdQyg9TylbTkhdW0NASF0oQihPMilbT0hdKVtDSDJdW0NIMl1bQ0BIXTJbQ0gyXUMoPU8pW09IXQ==

> <s_epik_cmdline>
J2VwaWtfYXBwJywgJy1pbWFlJywgJ2xpZ2FuZF9wcm8ubWFlJywgJy1vbWFlJywgJ2xpZ2FuZF9wcmVwLm1hZScsICctbXMnLCAnMScsICctcGgnLCAnNycsICctcGh0JywgJzAuNScsICctbnQn

> <r_lp_tautomer_probability>
1

> <r_epik_Ionization_Penalty>
  0.0013

> <r_epik_Ionization_Penalty_Charging>
  0.0013

> <r_epik_Ionization_Penalty_Neutral>
  0.0000

> <r_epik_State_Penalty>
 -0.0000

> <r_epik_Charging_Adjusted_Penalty>
0.00126622112698449

> <i_epik_Tot_Q>
-1

> <i_epik_Tot_abs_Q>
1

$$$$
