4xv1_ligand
                    3D
 Schrodinger Suite 2020-3.
 56 60  0  0  1  0            999 V2000
   -4.7630   -3.7700  -20.4290 S   0  0  0  0  0  0
    2.2400   -1.6970  -19.5810 C   0  0  0  0  0  0
    1.4600   -2.0910  -20.7420 C   0  0  0  0  0  0
    0.0050   -1.8840  -20.7420 C   0  0  0  0  0  0
    3.6610   -1.7540  -19.4210 C   0  0  0  0  0  0
   -3.0720   -3.9530  -20.5990 N   0  5  0  0  0  0
    1.7360   -1.1910  -18.3990 C   0  0  0  0  0  0
   -2.2370   -2.7900  -20.6710 C   0  0  0  0  0  0
   -0.8580   -2.9710  -20.6740 C   0  0  0  0  0  0
    3.9510   -1.2780  -18.1520 C   0  0  0  0  0  0
    2.7770   -0.9430  -17.5490 N   0  0  0  0  0  0
    9.4840   -3.1880  -21.8710 C   0  0  0  0  0  0
    4.7570   -2.1570  -20.2080 C   0  0  0  0  0  0
    5.1550   -1.1530  -17.5810 N   0  0  0  0  0  0
    9.5310   -2.0580  -21.1360 N   0  0  0  0  0  0
    8.3910   -3.9790  -21.9450 N   0  0  0  0  0  0
   10.7120   -3.5780  -22.6460 C   0  0  0  0  0  0
    6.0550   -2.0590  -19.6840 C   0  0  0  0  0  0
   -4.9130   -3.0280  -18.8960 N   0  0  2  0  0  0
   12.0250   -3.7670  -21.9280 C   0  0  0  0  0  0
   11.8300   -2.5800  -22.8190 C   0  0  0  0  0  0
    7.2420   -2.4580  -20.4490 C   0  0  0  0  0  0
   -0.5210   -0.5990  -20.8090 C   0  0  0  0  0  0
   -5.3250   -5.1020  -20.3430 O   0  0  0  0  0  0
   -5.2720   -2.8650  -21.4330 O   0  0  0  0  0  0
    1.9600   -2.6030  -21.7330 O   0  0  0  0  0  0
    7.3070   -3.5950  -21.2350 C   0  0  0  0  0  0
    8.4160   -1.7280  -20.4490 C   0  0  0  0  0  0
    6.1630   -1.5560  -18.3860 C   0  0  0  0  0  0
   -2.7540   -1.4960  -20.7400 C   0  0  0  0  0  0
   -1.8940   -0.3990  -20.8090 C   0  0  0  0  0  0
   -0.3590   -4.2080  -20.6090 F   0  0  0  0  0  0
    0.2870    0.4630  -20.8760 F   0  0  0  0  0  0
   -4.3660   -3.6710  -17.6740 C   0  0  0  0  0  0
   -5.9880   -2.0470  -18.6380 C   0  0  0  0  0  0
   -4.1540   -2.6850  -16.5440 C   0  0  0  0  0  0
    0.7042   -0.9808  -18.0809 H   0  0  0  0  0  0
    4.6025   -2.5459  -21.2253 H   0  0  0  0  0  0
   10.0968   -4.1911  -23.3210 H   0  0  0  0  0  0
   11.8508   -3.7776  -20.8419 H   0  0  0  0  0  0
   12.4774   -4.7212  -22.2361 H   0  0  0  0  0  0
   12.1175   -2.5317  -23.8797 H   0  0  0  0  0  0
   11.4910   -1.5881  -22.4855 H   0  0  0  0  0  0
    6.4200   -4.2265  -21.2851 H   0  0  0  0  0  0
    8.4439   -0.8180  -19.8497 H   0  0  0  0  0  0
    7.1706   -1.4800  -17.9772 H   0  0  0  0  0  0
   -3.8330   -1.3413  -20.7400 H   0  0  0  0  0  0
   -2.2995    0.6113  -20.8627 H   0  0  0  0  0  0
   -5.0653   -4.4437  -17.3220 H   0  0  0  0  0  0
   -3.3952   -4.1333  -17.9061 H   0  0  0  0  0  0
   -6.3331   -1.6219  -19.5920 H   0  0  0  0  0  0
   -5.6028   -1.2414  -17.9956 H   0  0  0  0  0  0
   -6.8281   -2.5476  -18.1344 H   0  0  0  0  0  0
   -3.7494   -3.2129  -15.6679 H   0  0  0  0  0  0
   -5.1143   -2.2183  -16.2797 H   0  0  0  0  0  0
   -3.4443   -1.9078  -16.8639 H   0  0  0  0  0  0
  1  6  1  0  0  0
  1 19  1  0  0  0
  1 24  2  0  0  0
  1 25  2  0  0  0
  2  3  1  0  0  0
  2  5  2  0  0  0
  2  7  1  0  0  0
  3  4  1  0  0  0
  3 26  2  0  0  0
  4  9  2  0  0  0
  4 23  1  0  0  0
  5 10  1  0  0  0
  5 13  1  0  0  0
  6  8  1  0  0  0
  7 11  2  0  0  0
  7 37  1  0  0  0
  8  9  1  0  0  0
  8 30  2  0  0  0
  9 32  1  0  0  0
 10 11  1  0  0  0
 10 14  2  0  0  0
 12 15  2  0  0  0
 12 16  1  0  0  0
 12 17  1  0  0  0
 13 18  2  0  0  0
 13 38  1  0  0  0
 14 29  1  0  0  0
 15 28  1  0  0  0
 16 27  2  0  0  0
 17 20  1  0  0  0
 17 21  1  0  0  0
 17 39  1  0  0  0
 18 22  1  0  0  0
 18 29  1  0  0  0
 19 34  1  0  0  0
 19 35  1  0  0  0
 20 21  1  0  0  0
 20 40  1  0  0  0
 20 41  1  0  0  0
 21 42  1  0  0  0
 21 43  1  0  0  0
 22 27  1  0  0  0
 22 28  2  0  0  0
 23 31  2  0  0  0
 23 33  1  0  0  0
 27 44  1  0  0  0
 28 45  1  0  0  0
 29 46  1  0  0  0
 30 31  1  0  0  0
 30 47  1  0  0  0
 31 48  1  0  0  0
 34 36  1  0  0  0
 34 49  1  0  0  0
 34 50  1  0  0  0
 35 51  1  0  0  0
 35 52  1  0  0  0
 35 53  1  0  0  0
 36 54  1  0  0  0
 36 55  1  0  0  0
 36 56  1  0  0  0
M  CHG  1   6  -1
M  END
> <s_m_source_file>
../4xv1_ligand.sdf

> <i_m_source_file_index>
1

> <s_epik_input>
W0NIM11bQ0gyXU4oW0NIM10pUyg9TykoPU8pW05IXWMoW2NIXVtjSF1jMUYpYyhGKWMxQyg9TylDPTJbQ0hdPU5DKEMyMyk9TltDSDJdQyg9W0NIXTMpYyhbY0hdbjQpW2NIXW5jNFtDSF01W0NIMl1bQ0gyXTU=

> <s_epik_cmdline>
J2VwaWtfYXBwJywgJy1pbWFlJywgJ2xpZ2FuZF9wcm8ubWFlJywgJy1vbWFlJywgJ2xpZ2FuZF9wcmVwLm1hZScsICctbXMnLCAnMScsICctcGgnLCAnNycsICctcGh0JywgJzAuNScsICctbnQn

> <r_epik_Ionization_Penalty>
  0.0575

> <r_epik_Ionization_Penalty_Charging>
  0.0575

> <r_epik_Ionization_Penalty_Neutral>
  0.0000

> <r_epik_State_Penalty>
  0.0497

> <r_epik_Charging_Adjusted_Penalty>
0.107186502844093

> <i_epik_Tot_Q>
-1

> <i_epik_Tot_abs_Q>
1

> <s_epik_Chemistry_Notes>
This compound contains an electron-poor aromatic ring that is susceptible to covalent hydrolysis at low pH, typically resulting in measured values for nitrogen ring protonation that are around two units higher than predicted values. This compound has an imine and may undergo hydrolysis.

$$$$
