4xv2_ligand
                    3D
 Schrodinger Suite 2020-3.
 55 58  0  0  1  0            999 V2000
    4.8550   -1.3790  -18.6890 C   0  0  0  0  0  0
    3.1310   -2.1840  -20.0210 C   0  0  0  0  0  0
    4.4530   -1.9240  -19.8650 N   0  0  0  0  0  0
    2.2080   -1.9280  -19.0200 C   0  0  0  0  0  0
    4.0120   -1.0880  -17.6720 N   0  0  0  0  0  0
    2.7080   -1.3710  -17.8650 C   0  0  0  0  0  0
    6.2010   -1.0990  -18.5190 N   0  0  0  0  0  0
    2.7720   -2.7900  -21.3100 C   0  0  0  0  0  0
    4.0380   -3.4200  -22.2970 S   0  0  0  0  0  0
    2.9150   -3.9280  -23.4950 C   0  0  0  0  0  0
    1.6650   -3.6530  -23.1940 N   0  0  0  0  0  0
    1.5710   -3.0200  -21.9700 C   0  0  0  0  0  0
    3.3580   -4.6250  -24.7820 C   0  0  0  0  0  0
    3.1110   -3.7120  -25.9970 C   0  0  0  0  0  0
    2.5340   -5.9160  -24.9760 C   0  0  0  0  0  0
    4.8410   -5.0350  -24.7300 C   0  0  0  0  0  0
    0.2370   -2.6530  -21.5300 C   0  0  0  0  0  0
   -2.0300   -3.3300  -20.9750 C   0  0  0  0  0  0
   -0.7350   -3.6430  -21.3750 C   0  0  0  0  0  0
   -2.3790   -2.0010  -20.7250 C   0  0  0  0  0  0
   -0.1220   -1.3180  -21.2870 C   0  0  0  0  0  0
   -1.4200   -1.0000  -20.8840 C   0  0  0  0  0  0
   -0.4330   -4.9270  -21.6070 F   0  0  0  0  0  0
   -2.9390   -4.4300  -20.8410 N   0  0  0  0  0  0
   -4.6350   -4.2090  -20.9450 S   0  0  0  0  0  0
   -5.0650   -3.7710  -19.2800 C   0  0  0  0  0  0
   -5.9130   -2.2500  -17.6010 C   0  0  0  0  0  0
   -5.5840   -2.5250  -18.9280 C   0  0  0  0  0  0
   -5.7210   -3.2200  -16.6140 C   0  0  0  0  0  0
   -4.8790   -4.7330  -18.2890 C   0  0  0  0  0  0
   -5.2020   -4.4680  -16.9600 C   0  0  0  0  0  0
   -4.3800   -5.9350  -18.6060 F   0  0  0  0  0  0
   -5.7860   -1.5650  -19.8360 F   0  0  0  0  0  0
   -4.9590   -3.1260  -21.8520 O   0  0  0  0  0  0
   -5.2660   -5.4970  -21.1630 O   0  0  0  0  0  0
    1.1485   -2.1543  -19.1401 H   0  0  0  0  0  0
    2.0091   -1.1456  -17.0595 H   0  0  0  0  0  0
    6.9153   -1.3225  -19.3251 H   0  0  0  0  0  0
    6.5555   -0.6532  -17.5779 H   0  0  0  0  0  0
    2.0502   -3.4227  -26.0286 H   0  0  0  0  0  0
    3.3717   -4.2511  -26.9197 H   0  0  0  0  0  0
    3.7347   -2.8100  -25.9107 H   0  0  0  0  0  0
    1.4639   -5.6650  -25.0184 H   0  0  0  0  0  0
    2.7175   -6.5983  -24.1329 H   0  0  0  0  0  0
    2.8336   -6.4045  -25.9149 H   0  0  0  0  0  0
    5.4644   -4.1393  -24.5920 H   0  0  0  0  0  0
    5.1171   -5.5325  -25.6714 H   0  0  0  0  0  0
    5.0010   -5.7262  -23.8894 H   0  0  0  0  0  0
   -3.3910   -1.7481  -20.4087 H   0  0  0  0  0  0
    0.6162   -0.5260  -21.4136 H   0  0  0  0  0  0
   -1.6868    0.0392  -20.6918 H   0  0  0  0  0  0
   -2.5248   -5.4342  -20.6676 H   0  0  0  0  0  0
   -6.3211   -1.2755  -17.3331 H   0  0  0  0  0  0
   -5.9759   -3.0024  -15.5768 H   0  0  0  0  0  0
   -5.0503   -5.2303  -16.1958 H   0  0  0  0  0  0
  1  3  2  0  0  0
  1  5  1  0  0  0
  1  7  1  0  0  0
  2  3  1  0  0  0
  2  4  2  0  0  0
  2  8  1  0  0  0
  4  6  1  0  0  0
  4 36  1  0  0  0
  5  6  2  0  0  0
  6 37  1  0  0  0
  7 38  1  0  0  0
  7 39  1  0  0  0
  8  9  1  0  0  0
  8 12  2  0  0  0
  9 10  1  0  0  0
 10 11  2  0  0  0
 10 13  1  0  0  0
 11 12  1  0  0  0
 12 17  1  0  0  0
 13 14  1  0  0  0
 13 15  1  0  0  0
 13 16  1  0  0  0
 14 40  1  0  0  0
 14 41  1  0  0  0
 14 42  1  0  0  0
 15 43  1  0  0  0
 15 44  1  0  0  0
 15 45  1  0  0  0
 16 46  1  0  0  0
 16 47  1  0  0  0
 16 48  1  0  0  0
 17 19  2  0  0  0
 17 21  1  0  0  0
 18 19  1  0  0  0
 18 20  2  0  0  0
 18 24  1  0  0  0
 19 23  1  0  0  0
 20 22  1  0  0  0
 20 49  1  0  0  0
 21 22  2  0  0  0
 21 50  1  0  0  0
 22 51  1  0  0  0
 24 25  1  0  0  0
 24 52  1  0  0  0
 25 26  1  0  0  0
 25 34  2  0  0  0
 25 35  2  0  0  0
 26 28  2  0  0  0
 26 30  1  0  0  0
 27 28  1  0  0  0
 27 29  2  0  0  0
 27 53  1  0  0  0
 28 33  1  0  0  0
 29 31  1  0  0  0
 29 54  1  0  0  0
 30 31  2  0  0  0
 30 32  1  0  0  0
 31 55  1  0  0  0
M  END
> <s_m_source_file>
../4xv2_ligand.sdf

> <i_m_source_file_index>
1

> <s_epik_input>
bjFbY0hdW2NIXWMobmMxW05IMl0pLWMyc2MoQyhbQ0gzXSkoW0NIM10pW0NIM10pbmMyLWMzYyhGKWMoW2NIXVtjSF1bY0hdMylbTkhdUyg9TykoPU8pYzRjKEYpW2NIXVtjSF1bY0hdYzRG

> <s_epik_cmdline>
J2VwaWtfYXBwJywgJy1pbWFlJywgJ2xpZ2FuZF9wcm8ubWFlJywgJy1vbWFlJywgJ2xpZ2FuZF9wcmVwLm1hZScsICctbXMnLCAnMScsICctcGgnLCAnNycsICctcGh0JywgJzAuNScsICctbnQn

> <r_lp_tautomer_probability>
0.999999987636

> <r_epik_Ionization_Penalty>
  0.4058

> <r_epik_Ionization_Penalty_Charging>
  0.0000

> <r_epik_Ionization_Penalty_Neutral>
  0.4058

> <r_epik_State_Penalty>
  0.4054

> <r_epik_Charging_Adjusted_Penalty>
0.405409517376564

> <i_epik_Tot_Q>
0

> <i_epik_Tot_abs_Q>
0

$$$$
