4xx3_ligand
                    3D
 Schrodinger Suite 2020-3.
 58 60  0  0  1  0            999 V2000
   33.8880   62.7380   50.5650 C   0  0  0  0  0  0
   34.8920   63.3220   49.8190 C   0  0  0  0  0  0
   35.7640   62.5310   49.0810 C   0  0  0  0  0  0
   33.7860   61.3630   50.5570 C   0  0  0  0  0  0
   34.6610   60.5810   49.8230 C   0  0  0  0  0  0
   35.6720   61.1490   49.0620 C   0  0  0  0  0  0
   36.6510   60.2890   48.2840 C   0  0  0  0  0  0
   36.4030   61.6600   42.7850 C   0  0  0  0  0  0
   36.4760   61.1530   44.0770 C   0  0  0  0  0  0
   37.6880   61.0870   44.7410 C   0  0  0  0  0  0
   38.8260   61.5540   44.1130 C   0  0  0  0  0  0
   38.7610   62.0510   42.8220 C   0  0  0  0  0  0
   37.5490   62.0960   42.1560 C   0  0  0  0  0  0
   37.8210   60.5610   46.1160 C   0  0  0  0  0  0
   32.1910   60.1450   43.5780 N   0  3  0  0  0  0
   32.6440   58.7770   43.6650 C   0  0  1  0  0  0
   33.3840   58.4590   42.3790 C   0  0  0  0  0  0
   34.3730   59.4930   41.9030 C   0  0  0  0  0  0
   34.1270   60.7760   42.3340 N   0  0  0  0  0  0
   32.8920   61.1170   42.8950 C   0  0  0  0  0  0
   32.4130   62.3090   42.7640 N   0  0  0  0  0  0
   35.3070   59.1670   41.1840 O   0  0  0  0  0  0
   35.1230   61.7780   42.0270 C   0  0  0  0  0  0
   33.5340   58.5500   44.9060 C   0  0  0  0  0  0
   31.3820   57.9320   43.6460 C   0  0  0  0  0  0
   32.9740   59.0560   46.2200 C   0  0  0  0  0  0
   34.0260   57.1100   45.0730 C   0  0  0  0  0  0
   38.9380   60.2670   46.5250 O   0  0  0  0  0  0
   36.6530   60.4840   46.8480 N   0  0  0  0  0  0
   33.1946   63.3474   51.1447 H   0  0  0  0  0  0
   35.0010   64.4065   49.8089 H   0  0  0  0  0  0
   36.5472   63.0145   48.4971 H   0  0  0  0  0  0
   33.0007   60.8822   51.1403 H   0  0  0  0  0  0
   34.5533   59.4965   49.8434 H   0  0  0  0  0  0
   37.6753   60.4989   48.6257 H   0  0  0  0  0  0
   36.4192   59.2268   48.4512 H   0  0  0  0  0  0
   35.5697   60.8040   44.5719 H   0  0  0  0  0  0
   39.7816   61.5312   44.6369 H   0  0  0  0  0  0
   39.6660   62.4073   42.3298 H   0  0  0  0  0  0
   37.5008   62.4757   41.1354 H   0  0  0  0  0  0
   31.2478   60.3998   44.0834 H   0  0  0  0  0  0
   33.9572   57.5288   42.5062 H   0  0  0  0  0  0
   32.6598   58.3344   41.5604 H   0  0  0  0  0  0
   31.4404   62.5631   43.2106 H   0  0  0  0  0  0
   34.6598   62.7529   42.2391 H   0  0  0  0  0  0
   35.3262   61.6953   40.9491 H   0  0  0  0  0  0
   34.4016   59.1903   44.6886 H   0  0  0  0  0  0
   30.8070   58.1522   42.7345 H   0  0  0  0  0  0
   30.7710   58.1656   44.5304 H   0  0  0  0  0  0
   31.6541   56.8663   43.6594 H   0  0  0  0  0  0
   32.6221   60.0906   46.0944 H   0  0  0  0  0  0
   33.7600   59.0268   46.9890 H   0  0  0  0  0  0
   32.1335   58.4179   46.5303 H   0  0  0  0  0  0
   34.4313   56.7478   44.1167 H   0  0  0  0  0  0
   33.1868   56.4693   45.3818 H   0  0  0  0  0  0
   34.8134   57.0782   45.8405 H   0  0  0  0  0  0
   35.7013   60.5761   46.3041 H   0  0  0  0  0  0
   32.9776   63.0704   42.2058 H   0  0  0  0  0  0
  1  2  2  0  0  0
  1  4  1  0  0  0
  1 30  1  0  0  0
  2  3  1  0  0  0
  2 31  1  0  0  0
  3  6  2  0  0  0
  3 32  1  0  0  0
  4  5  2  0  0  0
  4 33  1  0  0  0
  5  6  1  0  0  0
  5 34  1  0  0  0
  6  7  1  0  0  0
  7 29  1  0  0  0
  7 35  1  0  0  0
  7 36  1  0  0  0
  8  9  2  0  0  0
  8 13  1  0  0  0
  8 23  1  0  0  0
  9 10  1  0  0  0
  9 37  1  0  0  0
 10 11  2  0  0  0
 10 14  1  0  0  0
 11 12  1  0  0  0
 11 38  1  0  0  0
 12 13  2  0  0  0
 12 39  1  0  0  0
 13 40  1  0  0  0
 14 28  2  0  0  0
 14 29  1  0  0  0
 15 16  1  0  0  0
 15 20  2  0  0  0
 15 41  1  0  0  0
 16 17  1  0  0  0
 16 24  1  0  0  0
 16 25  1  0  0  0
 17 18  1  0  0  0
 17 42  1  0  0  0
 17 43  1  0  0  0
 18 19  1  0  0  0
 18 22  2  0  0  0
 19 20  1  0  0  0
 19 23  1  0  0  0
 20 21  1  0  0  0
 21 44  1  0  0  0
 21 58  1  0  0  0
 23 45  1  0  0  0
 23 46  1  0  0  0
 24 26  1  0  0  0
 24 27  1  0  0  0
 24 47  1  0  0  0
 25 48  1  0  0  0
 25 49  1  0  0  0
 25 50  1  0  0  0
 26 51  1  0  0  0
 26 52  1  0  0  0
 26 53  1  0  0  0
 27 54  1  0  0  0
 27 55  1  0  0  0
 27 56  1  0  0  0
 29 57  1  0  0  0
M  CHG  1  15   1
M  END
> <s_m_source_file>
../4xx3_ligand.sdf

> <i_m_source_file_index>
1

> <s_epik_input>
W2NIXTFbY0hdW2NIXVtjSF1bY0hdYzFbQ0gyXVtOSF1DKD1PKWMoW2NIXVtjSF1bY0hdMilbY0hdYzJbQ0gyXU4oQyg9TylbQ0gyXTMpQyg9Ti9bSF0pXFtOSF1bQ0BdMyhbQ0gzXSlbQ0hdKFtDSDNdKVtDSDNd

> <s_epik_cmdline>
J2VwaWtfYXBwJywgJy1pbWFlJywgJ2xpZ2FuZF9wcm8ubWFlJywgJy1vbWFlJywgJ2xpZ2FuZF9wcmVwLm1hZScsICctbXMnLCAnMScsICctcGgnLCAnNycsICctcGh0JywgJzAuNScsICctbnQn

> <r_epik_Ionization_Penalty>
  0.0400

> <r_epik_Ionization_Penalty_Charging>
  0.0400

> <r_epik_Ionization_Penalty_Neutral>
  0.0000

> <r_epik_State_Penalty>
  0.0597

> <r_epik_Charging_Adjusted_Penalty>
0.0996229628797568

> <i_epik_Tot_Q>
1

> <i_epik_Tot_abs_Q>
1

> <s_epik_Chemistry_Notes>
This compound has an imine and may undergo hydrolysis.

$$$$
