4xx4_ligand
                    3D
 Schrodinger Suite 2020-3.
 62 65  0  0  1  0            999 V2000
   37.3340   57.0100   46.9510 C   0  0  0  0  0  0
   37.5060   55.6450   46.8470 C   0  0  0  0  0  0
   38.1970   54.9750   47.8320 C   0  0  0  0  0  0
   38.7270   55.6680   48.8980 C   0  0  0  0  0  0
   34.0490   57.4610   45.4390 C   0  0  0  0  0  0
   38.5370   57.0310   48.9990 C   0  0  0  0  0  0
   37.8330   57.7250   48.0300 C   0  0  0  0  0  0
   36.9930   59.9190   46.9920 C   0  0  0  0  0  0
   37.6340   59.2180   48.1830 C   0  0  2  0  0  0
   39.3020   60.3730   46.9610 C   0  0  0  0  0  0
   34.6250   59.8970   42.2150 C   0  0  0  0  0  0
   32.8470   59.2580   43.9800 C   0  0  2  0  0  0
   33.6260   58.8880   42.7280 C   0  0  0  0  0  0
   31.5410   58.5040   43.8700 C   0  0  0  0  0  0
   38.8990   62.8500   43.5520 C   0  0  0  0  0  0
   38.9870   62.1190   44.7140 C   0  0  0  0  0  0
   37.9250   61.3440   45.1440 C   0  0  0  0  0  0
   36.7460   61.3460   44.4060 C   0  0  0  0  0  0
   32.9860   59.3860   46.5720 C   0  0  0  0  0  0
   32.4980   60.6680   43.9140 N   0  3  0  0  0  0
   34.3910   61.2040   42.6040 N   0  0  0  0  0  0
   33.1410   61.5690   43.0890 C   0  0  0  0  0  0
   32.6190   62.6980   42.7400 N   0  0  0  0  0  0
   35.5520   59.5310   41.5050 O   0  0  0  0  0  0
   35.4170   62.1960   42.3830 C   0  0  0  0  0  0
   33.6230   58.9220   45.2760 C   0  0  0  0  0  0
   36.6390   62.0960   43.2420 C   0  0  0  0  0  0
   37.7280   62.8280   42.8190 C   0  0  0  0  0  0
   38.0810   60.6130   46.3510 N   0  0  0  0  0  0
   38.9920   59.8600   48.3270 C   0  0  0  0  0  0
   40.4510   60.4770   46.5320 O   0  0  0  0  0  0
   36.7931   57.5393   46.1665 H   0  0  0  0  0  0
   37.0990   55.1023   45.9938 H   0  0  0  0  0  0
   38.3248   53.8944   47.7680 H   0  0  0  0  0  0
   39.2968   55.1394   49.6622 H   0  0  0  0  0  0
   34.5136   57.1083   44.5064 H   0  0  0  0  0  0
   33.1663   56.8447   45.6648 H   0  0  0  0  0  0
   34.7732   57.3800   46.2630 H   0  0  0  0  0  0
   38.9470   57.5688   49.8538 H   0  0  0  0  0  0
   36.5369   59.1702   46.3278 H   0  0  0  0  0  0
   36.2179   60.6132   47.3487 H   0  0  0  0  0  0
   36.9698   59.3268   49.0531 H   0  0  0  0  0  0
   32.8671   58.6977   41.9548 H   0  0  0  0  0  0
   34.1450   57.9491   42.9712 H   0  0  0  0  0  0
   31.0352   58.7815   42.9334 H   0  0  0  0  0  0
   30.8969   58.7597   44.7243 H   0  0  0  0  0  0
   31.7408   57.4223   43.8723 H   0  0  0  0  0  0
   39.7479   63.4430   43.2116 H   0  0  0  0  0  0
   39.9039   62.1508   45.3025 H   0  0  0  0  0  0
   35.8969   60.7525   44.7449 H   0  0  0  0  0  0
   33.6233   59.0928   47.4193 H   0  0  0  0  0  0
   31.9950   58.9211   46.6804 H   0  0  0  0  0  0
   32.8779   60.4806   46.5561 H   0  0  0  0  0  0
   31.6776   61.0060   44.5641 H   0  0  0  0  0  0
   31.6296   62.9883   43.1231 H   0  0  0  0  0  0
   35.7735   62.1297   41.3445 H   0  0  0  0  0  0
   35.0029   63.1987   42.5652 H   0  0  0  0  0  0
   34.5285   59.5284   45.1265 H   0  0  0  0  0  0
   37.6642   63.3981   41.8922 H   0  0  0  0  0  0
   38.9378   60.6700   49.0693 H   0  0  0  0  0  0
   39.7206   59.1060   48.6596 H   0  0  0  0  0  0
   33.1639   63.3690   42.0597 H   0  0  0  0  0  0
  1  2  2  0  0  0
  1  7  1  0  0  0
  1 32  1  0  0  0
  2  3  1  0  0  0
  2 33  1  0  0  0
  3  4  2  0  0  0
  3 34  1  0  0  0
  4  6  1  0  0  0
  4 35  1  0  0  0
  5 26  1  0  0  0
  5 36  1  0  0  0
  5 37  1  0  0  0
  5 38  1  0  0  0
  6  7  2  0  0  0
  6 39  1  0  0  0
  7  9  1  0  0  0
  8  9  1  0  0  0
  8 29  1  0  0  0
  8 40  1  0  0  0
  8 41  1  0  0  0
  9 30  1  0  0  0
  9 42  1  0  0  0
 10 29  1  0  0  0
 10 30  1  0  0  0
 10 31  2  0  0  0
 11 13  1  0  0  0
 11 21  1  0  0  0
 11 24  2  0  0  0
 12 13  1  0  0  0
 12 14  1  0  0  0
 12 20  1  0  0  0
 12 26  1  0  0  0
 13 43  1  0  0  0
 13 44  1  0  0  0
 14 45  1  0  0  0
 14 46  1  0  0  0
 14 47  1  0  0  0
 15 16  2  0  0  0
 15 28  1  0  0  0
 15 48  1  0  0  0
 16 17  1  0  0  0
 16 49  1  0  0  0
 17 18  2  0  0  0
 17 29  1  0  0  0
 18 27  1  0  0  0
 18 50  1  0  0  0
 19 26  1  0  0  0
 19 51  1  0  0  0
 19 52  1  0  0  0
 19 53  1  0  0  0
 20 22  2  0  0  0
 20 54  1  0  0  0
 21 22  1  0  0  0
 21 25  1  0  0  0
 22 23  1  0  0  0
 23 55  1  0  0  0
 23 62  1  0  0  0
 25 27  1  0  0  0
 25 56  1  0  0  0
 25 57  1  0  0  0
 26 58  1  0  0  0
 27 28  2  0  0  0
 28 59  1  0  0  0
 30 60  1  0  0  0
 30 61  1  0  0  0
M  CHG  1  20   1
M  END
> <s_m_source_file>
../4xx4_ligand.sdf

> <i_m_source_file_index>
1

> <s_epik_input>
W2NIXTFbY0hdW2NIXVtjSF1bY0hdYzFbQ0BASF0yW0NIMl1OKEMoPU8pW0NIMl0yKWMzW2NIXVtjSF1bY0hdYyhbY0hdMylbQ0gyXU4oQyhcW05IXTQpPU4vW0hdKUMoPU8pW0NIMl1bQ0BAXTQoW0NIM10pW0NIXShbQ0gzXSlbQ0gzXQ==

> <s_epik_cmdline>
J2VwaWtfYXBwJywgJy1pbWFlJywgJ2xpZ2FuZF9wcm8ubWFlJywgJy1vbWFlJywgJ2xpZ2FuZF9wcmVwLm1hZScsICctbXMnLCAnMScsICctcGgnLCAnNycsICctcGh0JywgJzAuNScsICctbnQn

> <r_epik_Ionization_Penalty>
  0.0400

> <r_epik_Ionization_Penalty_Charging>
  0.0400

> <r_epik_Ionization_Penalty_Neutral>
  0.0000

> <r_epik_State_Penalty>
  0.0597

> <r_epik_Charging_Adjusted_Penalty>
0.0996229628797568

> <i_epik_Tot_Q>
1

> <i_epik_Tot_abs_Q>
1

> <s_epik_Chemistry_Notes>
This compound has an imine and may undergo hydrolysis.

$$$$
