4xxs_ligand
                    3D
 Schrodinger Suite 2020-3.
 43 46  0  0  1  0            999 V2000
   19.2790  -38.7140    8.1000 C   0  0  0  0  0  0
   19.4930  -39.1340    6.7890 C   0  0  0  0  0  0
   20.7650  -39.3280    6.2880 C   0  0  0  0  0  0
   21.8270  -39.0790    7.1120 C   0  0  0  0  0  0
   21.6920  -38.6370    8.4060 C   0  0  0  0  0  0
   20.4120  -38.4850    8.8710 C   0  0  0  0  0  0
   20.2460  -38.1220   10.1680 F   0  0  0  0  0  0
   17.6430  -37.0110    8.9800 C   0  0  0  0  0  0
   16.3720  -36.7290    9.5750 O   0  0  0  0  0  0
   16.0840  -37.5120   10.7370 C   0  0  2  0  0  0
   16.1160  -39.0080   10.4470 C   0  0  0  0  0  0
   14.7390  -37.0440   11.1970 C   0  0  0  0  0  0
   23.0630  -39.3190    6.6400 F   0  0  0  0  0  0
   17.8180  -38.5170    8.5920 C   0  0  2  0  0  0
   17.4610  -39.4360    9.8280 C   0  0  2  0  0  0
   17.5540  -40.9030    9.4140 C   0  0  0  0  0  0
   16.4190  -41.3010    8.0610 S   0  0  0  0  0  0
   16.2730  -39.8070    7.1500 C   0  0  0  0  0  0
   16.8400  -38.6680    7.4760 N   0  0  0  0  0  0
   15.4360  -39.9030    6.1010 N   0  0  0  0  0  0
   14.4110  -36.3400   12.4250 C   0  0  0  0  0  0
   13.1140  -36.0900   12.4820 N   0  0  0  0  0  0
   12.5860  -36.6280   11.3030 N   0  0  0  0  0  0
   13.5280  -37.1910   10.5390 C   0  0  0  0  0  0
   11.1540  -36.5520   11.0410 C   0  0  0  0  0  0
   18.6343  -39.3141    6.1422 H   0  0  0  0  0  0
   20.9180  -39.6700    5.2644 H   0  0  0  0  0  0
   22.5583  -38.4186    9.0304 H   0  0  0  0  0  0
   17.7589  -36.4148    8.0629 H   0  0  0  0  0  0
   18.4445  -36.7539    9.6881 H   0  0  0  0  0  0
   16.8630  -37.3258   11.4909 H   0  0  0  0  0  0
   15.9711  -39.5662   11.3837 H   0  0  0  0  0  0
   15.3118  -39.2619    9.7407 H   0  0  0  0  0  0
   18.1793  -39.3397   10.6555 H   0  0  0  0  0  0
   18.5780  -41.1253    9.0792 H   0  0  0  0  0  0
   17.3019  -41.5430   10.2724 H   0  0  0  0  0  0
   14.9756  -40.8703    5.8515 H   0  0  0  0  0  0
   15.1328  -36.0577   13.1915 H   0  0  0  0  0  0
   13.3721  -37.6764    9.5756 H   0  0  0  0  0  0
   10.6576  -36.0229   11.8678 H   0  0  0  0  0  0
   10.7423  -37.5685   10.9565 H   0  0  0  0  0  0
   10.9816  -36.0072   10.1010 H   0  0  0  0  0  0
   15.2121  -39.0141    5.4929 H   0  0  0  0  0  0
  1  2  2  0  0  0
  1  6  1  0  0  0
  1 14  1  0  0  0
  2  3  1  0  0  0
  2 26  1  0  0  0
  3  4  2  0  0  0
  3 27  1  0  0  0
  4  5  1  0  0  0
  4 13  1  0  0  0
  5  6  2  0  0  0
  5 28  1  0  0  0
  6  7  1  0  0  0
  8  9  1  0  0  0
  8 14  1  0  0  0
  8 29  1  0  0  0
  8 30  1  0  0  0
  9 10  1  0  0  0
 10 11  1  0  0  0
 10 12  1  0  0  0
 10 31  1  0  0  0
 11 15  1  0  0  0
 11 32  1  0  0  0
 11 33  1  0  0  0
 12 21  1  0  0  0
 12 24  2  0  0  0
 14 15  1  0  0  0
 14 19  1  0  0  0
 15 16  1  0  0  0
 15 34  1  0  0  0
 16 17  1  0  0  0
 16 35  1  0  0  0
 16 36  1  0  0  0
 17 18  1  0  0  0
 18 19  2  0  0  0
 18 20  1  0  0  0
 20 37  1  0  0  0
 20 43  1  0  0  0
 21 22  2  0  0  0
 21 38  1  0  0  0
 22 23  1  0  0  0
 23 24  1  0  0  0
 23 25  1  0  0  0
 24 39  1  0  0  0
 25 40  1  0  0  0
 25 41  1  0  0  0
 25 42  1  0  0  0
M  END
> <s_m_source_file>
../4xxs_ligand.sdf

> <i_m_source_file_index>
1

> <s_epik_input>
RmMxW2NIXWMoRilbY0hdW2NIXWMxW0NAQF0yM1tDQEhdKFtDSDJdUy9DKFtOSF0zKT1OXFtIXSlbQ0gyXVtDQEBIXShPW0NIMl0yKWM0W2NIXW5uKFtjSF00KVtDSDNd

> <s_epik_cmdline>
J2VwaWtfYXBwJywgJy1pbWFlJywgJ2xpZ2FuZF9wcm8ubWFlJywgJy1vbWFlJywgJ2xpZ2FuZF9wcmVwLm1hZScsICctbXMnLCAnMScsICctcGgnLCAnNycsICctcGh0JywgJzAuNScsICctbnQn

> <r_lp_tautomer_probability>
1

> <r_epik_Ionization_Penalty>
  0.1518

> <r_epik_Ionization_Penalty_Charging>
  0.0000

> <r_epik_Ionization_Penalty_Neutral>
  0.1518

> <r_epik_State_Penalty>
 -0.0000

> <r_epik_Charging_Adjusted_Penalty>
0

> <i_epik_Tot_Q>
0

> <i_epik_Tot_abs_Q>
0

> <s_epik_Chemistry_Notes>
This compound has an imine and may undergo hydrolysis.

$$$$
