4xy2_ligand
                    3D
 Schrodinger Suite 2020-3.
 57 61  0  0  1  0            999 V2000
   15.2960    1.9310   62.2860 C   0  0  0  0  0  0
   15.7030    2.2380   64.7150 C   0  0  0  0  0  0
   15.4510    2.1800   59.8260 C   0  0  0  0  0  0
   14.4350    1.7330   57.2550 C   0  0  0  0  0  0
   20.3310    2.9980   58.5470 C   0  0  0  0  0  0
   21.0820    3.5140   57.5000 C   0  0  0  0  0  0
   19.4920    5.2000   58.9650 C   0  0  0  0  0  0
   21.9050    5.3440   55.9950 C   0  0  0  0  0  0
   22.1730    6.5220   53.8830 C   0  0  0  0  0  0
   24.0300    5.4720   54.8200 C   0  0  0  0  0  0
   21.3990    6.0950   54.9580 C   0  0  0  0  0  0
   20.2620    5.6890   57.9060 C   0  0  0  0  0  0
   23.5220    6.2130   53.7700 C   0  0  0  0  0  0
   25.2680    4.2770   56.2400 C   0  0  0  0  0  0
   21.0810    4.8590   57.1390 C   0  0  0  0  0  0
   15.8570    2.4630   61.1640 C   0  0  0  0  0  0
   23.2620    5.0480   55.8950 C   0  0  0  0  0  0
   19.5160    3.8520   59.2770 C   0  0  0  0  0  0
   16.8560    3.3650   61.6360 C   0  0  0  0  0  0
   14.0940    1.7710   59.6000 C   0  0  0  0  0  0
   13.5360    1.5530   58.4130 C   0  0  0  0  0  0
   16.2430    2.3430   58.7630 C   0  0  0  0  0  0
   26.4820    5.1470   54.2340 C   0  0  0  0  0  0
   16.6500    2.3190   56.4030 C   0  0  0  0  0  0
   17.7470    4.1890   60.8000 C   0  0  0  0  0  0
   24.0590    4.3320   56.7570 N   0  0  0  0  0  0
   16.9400    3.3900   62.9730 N   0  0  0  0  0  0
   15.9780    2.5110   63.3160 N   0  0  0  0  0  0
   25.2890    4.9620   55.0610 N   0  0  0  0  0  0
   15.7640    2.1050   57.5040 N   0  0  0  0  0  0
   13.9560    1.5360   56.1640 O   0  0  0  0  0  0
   18.7620    3.2900   60.3230 O   0  0  0  0  0  0
   14.4849    1.2054   62.3471 H   0  0  0  0  0  0
   14.8912    1.4998   64.7918 H   0  0  0  0  0  0
   15.4011    3.1687   65.2177 H   0  0  0  0  0  0
   16.6084    1.8387   65.1955 H   0  0  0  0  0  0
   20.3806    1.9372   58.7925 H   0  0  0  0  0  0
   21.7074    2.8282   56.9285 H   0  0  0  0  0  0
   18.8713    5.8818   59.5463 H   0  0  0  0  0  0
   21.7036    7.1202   53.1021 H   0  0  0  0  0  0
   20.3439    6.3677   54.9799 H   0  0  0  0  0  0
   20.2216    6.7527   57.6716 H   0  0  0  0  0  0
   24.1304    6.5290   52.9226 H   0  0  0  0  0  0
   26.1203    3.7636   56.6851 H   0  0  0  0  0  0
   13.4183    1.6113   60.4532 H   0  0  0  0  0  0
   12.6891    2.2502   58.3315 H   0  0  0  0  0  0
   13.1599    0.5194   58.4281 H   0  0  0  0  0  0
   16.5891    3.3862   58.7202 H   0  0  0  0  0  0
   17.1107    1.6719   58.8458 H   0  0  0  0  0  0
   26.2218    5.7348   53.3414 H   0  0  0  0  0  0
   26.8705    4.1651   53.9260 H   0  0  0  0  0  0
   27.2504    5.6802   54.8130 H   0  0  0  0  0  0
   16.1284    2.0882   55.4624 H   0  0  0  0  0  0
   17.5276    1.6639   56.5059 H   0  0  0  0  0  0
   16.9758    3.3696   56.3934 H   0  0  0  0  0  0
   17.1718    4.6240   59.9694 H   0  0  0  0  0  0
   18.1786    4.9966   61.4096 H   0  0  0  0  0  0
  1 16  2  0  0  0
  1 28  1  0  0  0
  1 33  1  0  0  0
  2 28  1  0  0  0
  2 34  1  0  0  0
  2 35  1  0  0  0
  2 36  1  0  0  0
  3 16  1  0  0  0
  3 20  2  0  0  0
  3 22  1  0  0  0
  4 21  1  0  0  0
  4 30  1  0  0  0
  4 31  2  0  0  0
  5  6  2  0  0  0
  5 18  1  0  0  0
  5 37  1  0  0  0
  6 15  1  0  0  0
  6 38  1  0  0  0
  7 12  1  0  0  0
  7 18  2  0  0  0
  7 39  1  0  0  0
  8 11  1  0  0  0
  8 15  1  0  0  0
  8 17  2  0  0  0
  9 11  2  0  0  0
  9 13  1  0  0  0
  9 40  1  0  0  0
 10 13  2  0  0  0
 10 17  1  0  0  0
 10 29  1  0  0  0
 11 41  1  0  0  0
 12 15  2  0  0  0
 12 42  1  0  0  0
 13 43  1  0  0  0
 14 26  2  0  0  0
 14 29  1  0  0  0
 14 44  1  0  0  0
 16 19  1  0  0  0
 17 26  1  0  0  0
 18 32  1  0  0  0
 19 25  1  0  0  0
 19 27  2  0  0  0
 20 21  1  0  0  0
 20 45  1  0  0  0
 21 46  1  0  0  0
 21 47  1  0  0  0
 22 30  1  0  0  0
 22 48  1  0  0  0
 22 49  1  0  0  0
 23 29  1  0  0  0
 23 50  1  0  0  0
 23 51  1  0  0  0
 23 52  1  0  0  0
 24 30  1  0  0  0
 24 53  1  0  0  0
 24 54  1  0  0  0
 24 55  1  0  0  0
 25 32  1  0  0  0
 25 56  1  0  0  0
 25 57  1  0  0  0
 27 28  1  0  0  0
M  END
> <s_m_source_file>
../4xy2_ligand.sdf

> <i_m_source_file_index>
1

> <s_epik_input>
W0NIMl0xTihbQ0gzXSlDKD1PKVtDSDJdW0NIXT1DMWMyW2NIXW4oW0NIM10pbmMyW0NIMl1PYyhbY0hdW2NIXTMpW2NIXVtjSF1jMy1jKFtjSF1bY0hdW2NIXTQpYyhjNDUpbltjSF1uNVtDSDNd

> <s_epik_cmdline>
J2VwaWtfYXBwJywgJy1pbWFlJywgJ2xpZ2FuZF9wcm8ubWFlJywgJy1vbWFlJywgJ2xpZ2FuZF9wcmVwLm1hZScsICctbXMnLCAnMScsICctcGgnLCAnNycsICctcGh0JywgJzAuNScsICctbnQn

> <r_lp_tautomer_probability>
1

> <r_epik_Ionization_Penalty>
  0.0624

> <r_epik_Ionization_Penalty_Charging>
  0.0000

> <r_epik_Ionization_Penalty_Neutral>
  0.0624

> <r_epik_State_Penalty>
  0.0542

> <r_epik_Charging_Adjusted_Penalty>
0.0542224238305404

> <i_epik_Tot_Q>
0

> <i_epik_Tot_abs_Q>
0

$$$$
