4xyc_ligand
                    3D
 Schrodinger Suite 2020-3.
 36 40  0  0  1  0            999 V2000
  157.9920   33.8270    4.5710 O   0  0  0  0  0  0
  157.9750   34.1350    5.7810 C   0  0  0  0  0  0
  157.7040   35.5590    6.1600 C   0  0  0  0  0  0
  157.4550   36.7020    5.4750 N   0  0  0  0  0  0
  157.2890   37.7240    6.3640 C   0  0  0  0  0  0
  157.4420   37.2230    7.6470 C   0  0  0  0  0  0
  157.6850   35.9270    7.4380 N   0  0  0  0  0  0
  157.9120   35.0030    8.3850 C   0  0  0  0  0  0
  158.1990   33.1990    6.7330 N   0  0  0  0  0  0
  158.1720   33.5990    8.0130 C   0  0  0  0  0  0
  158.3600   32.8990    9.1890 C   0  0  0  0  0  0
  158.6340   31.5450    9.3730 C   0  0  0  0  0  0
  158.7790   31.0910   10.6870 C   0  0  0  0  0  0
  158.6490   31.9820   11.7680 C   0  0  0  0  0  0
  158.3820   33.3520   11.5720 C   0  0  0  0  0  0
  158.2290   33.7880   10.2510 C   0  0  0  0  0  0
  157.9400   35.1690    9.8330 C   0  0  0  0  0  0
  158.1940   34.3140   12.7180 C   0  0  0  0  0  0
  157.2950   33.9750   13.7370 C   0  0  0  0  0  0
  157.0580   34.8410   14.8110 C   0  0  0  0  0  0
  157.7010   36.0750   14.8750 C   0  0  0  0  0  0
  158.5810   36.4360   13.8580 C   0  0  0  0  0  0
  158.8240   35.5650   12.7870 C   0  0  0  0  0  0
  157.0723   38.7611    6.1078 H   0  0  0  0  0  0
  157.3793   37.7568    8.5953 H   0  0  0  0  0  0
  158.3936   32.1558    6.4436 H   0  0  0  0  0  0
  158.7314   30.8666    8.5254 H   0  0  0  0  0  0
  158.9943   30.0392   10.8755 H   0  0  0  0  0  0
  158.7577   31.6028   12.7841 H   0  0  0  0  0  0
  158.7259   35.8892   10.1043 H   0  0  0  0  0  0
  156.9648   35.5431   10.1781 H   0  0  0  0  0  0
  156.7708   33.0203   13.6930 H   0  0  0  0  0  0
  156.3667   34.5482   15.6013 H   0  0  0  0  0  0
  157.5175   36.7499   15.7111 H   0  0  0  0  0  0
  159.0842   37.4022   13.8950 H   0  0  0  0  0  0
  159.5124   35.8643   11.9966 H   0  0  0  0  0  0
  1  2  2  0  0  0
  2  3  1  0  0  0
  2  9  1  0  0  0
  3  4  2  0  0  0
  3  7  1  0  0  0
  4  5  1  0  0  0
  5  6  2  0  0  0
  5 24  1  0  0  0
  6  7  1  0  0  0
  6 25  1  0  0  0
  7  8  1  0  0  0
  8 10  2  0  0  0
  8 17  1  0  0  0
  9 10  1  0  0  0
  9 26  1  0  0  0
 10 11  1  0  0  0
 11 12  2  0  0  0
 11 16  1  0  0  0
 12 13  1  0  0  0
 12 27  1  0  0  0
 13 14  2  0  0  0
 13 28  1  0  0  0
 14 15  1  0  0  0
 14 29  1  0  0  0
 15 16  2  0  0  0
 15 18  1  0  0  0
 16 17  1  0  0  0
 17 30  1  0  0  0
 17 31  1  0  0  0
 18 19  2  0  0  0
 18 23  1  0  0  0
 19 20  1  0  0  0
 19 32  1  0  0  0
 20 21  2  0  0  0
 20 33  1  0  0  0
 21 22  1  0  0  0
 21 34  1  0  0  0
 22 23  2  0  0  0
 22 35  1  0  0  0
 23 36  1  0  0  0
M  END
> <s_m_source_file>
../4xyc_ligand.sdf

> <i_m_source_file_index>
1

> <s_epik_input>
bjFbY0hdW2NIXW4oYzEyKWMzYyhbbkhdYzI9TyljNGMoW0NIMl0zKWMoW2NIXVtjSF1bY0hdNCktYzVbY0hdW2NIXVtjSF1bY0hdW2NIXTU=

> <s_epik_cmdline>
J2VwaWtfYXBwJywgJy1pbWFlJywgJ2xpZ2FuZF9wcm8ubWFlJywgJy1vbWFlJywgJ2xpZ2FuZF9wcmVwLm1hZScsICctbXMnLCAnMScsICctcGgnLCAnNycsICctcGh0JywgJzAuNScsICctbnQn

> <r_lp_tautomer_probability>
1

> <r_epik_Ionization_Penalty>
  0.0498

> <r_epik_Ionization_Penalty_Charging>
  0.0498

> <r_epik_Ionization_Penalty_Neutral>
  0.0000

> <r_epik_State_Penalty>
 -0.0000

> <r_epik_Charging_Adjusted_Penalty>
0.049774648501443

> <i_epik_Tot_Q>
0

> <i_epik_Tot_abs_Q>
0

$$$$
