4xyn_ligand
                    3D
 Schrodinger Suite 2020-3.
158159  0  0  1  0            999 V2000
  -22.5650   36.1130  -24.0520 N   0  3  0  0  0  0
  -23.1410   37.4010  -23.7100 C   0  0  2  0  0  0
  -24.5290   37.2520  -23.0810 C   0  0  0  0  0  0
  -25.4060   36.5830  -23.6510 O   0  0  0  0  0  0
  -23.2250   38.2900  -24.9670 C   0  0  0  0  0  0
  -22.8520   39.7450  -24.6970 C   0  0  0  0  0  0
  -22.7680   40.6010  -25.9490 C   0  0  0  0  0  0
  -21.5170   40.4450  -26.7120 N   0  0  0  0  0  0
  -21.2720   41.0860  -27.8680 C   0  0  0  0  0  0
  -20.1120   40.9340  -28.5280 N   0  0  0  0  0  0
  -22.2030   41.9020  -28.3640 N   0  0  0  0  0  0
  -24.7320   37.8760  -21.9150 N   0  0  0  0  0  0
  -26.0770   38.0490  -21.3500 C   0  0  2  0  0  0
  -26.3910   39.4660  -20.8030 C   0  0  0  0  0  0
  -25.4870   40.2540  -20.5420 O   0  0  0  0  0  0
  -26.3050   37.0470  -20.2340 C   0  0  2  0  0  0
  -25.6130   37.4410  -19.0600 O   0  0  0  0  0  0
  -25.7930   35.6950  -20.6420 C   0  0  0  0  0  0
  -27.6850   39.7760  -20.6480 N   0  0  0  0  0  0
  -28.1230   41.0670  -20.1080 C   0  0  2  0  0  0
  -27.6720   41.1100  -18.6630 C   0  0  0  0  0  0
  -27.7500   40.1150  -17.9670 O   0  0  0  0  0  0
  -29.6530   41.2730  -20.2160 C   0  0  0  0  0  0
  -30.2500   41.3540  -21.6580 C   0  0  0  0  0  0
  -31.8110   41.3780  -21.7030 C   0  0  0  0  0  0
  -32.4490   40.6640  -20.8850 O   0  0  0  0  0  0
  -32.4070   42.1030  -22.5590 O   0  0  0  0  0  0
  -27.1580   42.2490  -18.2250 N   0  0  0  0  0  0
  -26.5220   42.3290  -16.9270 C   0  0  2  0  0  0
  -27.5130   42.2340  -15.7890 C   0  0  0  0  0  0
  -27.1720   41.7620  -14.7050 O   0  0  0  0  0  0
  -25.7570   43.5980  -16.8090 C   0  0  0  0  0  0
  -28.7410   42.6870  -16.0090 N   0  0  0  0  0  0
  -29.7110   42.7070  -14.9110 C   0  0  2  0  0  0
  -30.2140   41.2900  -14.5730 C   0  0  0  0  0  0
  -30.7230   41.0550  -13.4880 O   0  0  0  0  0  0
  -30.8850   43.6430  -15.2400 C   0  0  0  0  0  0
  -31.5610   43.2470  -16.4580 C   0  0  0  0  0  0
  -31.3000   43.6710  -17.7190 C   0  0  0  0  0  0
  -32.6070   42.3030  -16.5510 C   0  0  0  0  0  0
  -32.1420   43.0510  -18.6100 N   0  0  0  0  0  0
  -32.9540   42.1990  -17.9110 C   0  0  0  0  0  0
  -33.2980   41.5300  -15.6080 C   0  0  0  0  0  0
  -33.9590   41.3560  -18.3570 C   0  0  0  0  0  0
  -34.2900   40.6880  -16.0500 C   0  0  0  0  0  0
  -34.6200   40.6120  -17.4130 C   0  0  0  0  0  0
  -30.0400   40.3280  -15.4670 N   0  0  0  0  0  0
  -30.4630   38.9730  -15.1510 C   0  0  2  0  0  0
  -29.5470   38.2680  -14.1290 C   0  0  0  0  0  0
  -29.9090   37.2030  -13.6060 O   0  0  0  0  0  0
  -30.5450   38.1430  -16.4220 C   0  0  0  0  0  0
  -31.5410   38.6430  -17.4450 C   0  0  0  0  0  0
  -31.1800   38.1010  -18.8180 C   0  0  0  0  0  0
  -32.3780   37.7570  -19.6430 C   0  0  0  0  0  0
  -32.4640   36.2680  -19.7690 N   0  3  0  0  0  0
  -28.3710   38.8420  -13.8450 N   0  0  0  0  0  0
  -27.4180   38.1850  -12.9450 C   0  0  2  0  0  0
  -28.0030   38.1350  -11.5610 C   0  0  0  0  0  0
  -28.5050   39.1530  -11.0590 O   0  0  0  0  0  0
  -26.0210   38.9010  -12.8460 C   0  0  0  0  0  0
  -25.2260   38.8190  -14.1730 C   0  0  0  0  0  0
  -26.1710   40.3340  -12.3130 C   0  0  0  0  0  0
  -27.9370   36.9740  -10.9140 N   0  0  0  0  0  0
  -28.5700   36.8970   -9.6060 C   0  0  2  0  0  0
  -27.5940   36.4860   -8.5200 C   0  0  0  0  0  0
  -27.2550   37.3120   -7.6580 O   0  0  0  0  0  0
  -29.7810   35.9510   -9.6580 C   0  0  0  0  0  0
  -30.9680   36.2680   -8.7300 C   0  0  0  0  0  0
  -31.3790   37.7470   -8.7360 C   0  0  0  0  0  0
  -32.1680   35.4200   -9.1200 C   0  0  0  0  0  0
  -27.1380   35.2340   -8.5910 N   0  0  0  0  0  0
  -26.5180   34.5190   -7.4600 C   0  0  2  0  0  0
  -27.2050   33.1420   -7.3290 C   0  0  0  0  0  0
  -27.1700   32.4950   -6.2730 O   0  0  0  0  0  0
  -26.6130   35.3120   -6.1260 C   0  0  0  0  0  0
  -26.1380   34.5490   -5.0220 O   0  0  0  0  0  0
  -27.8190   32.6280   -8.2750 O   0  0  0  0  0  0
  -22.5087   35.4855  -23.1503 H   0  0  0  0  0  0
  -21.5541   36.2601  -24.4600 H   0  0  0  0  0  0
  -23.1957   35.6175  -24.8048 H   0  0  0  0  0  0
  -22.4516   37.8226  -22.9637 H   0  0  0  0  0  0
  -22.5363   37.9063  -25.7341 H   0  0  0  0  0  0
  -24.2532   38.2766  -25.3576 H   0  0  0  0  0  0
  -23.6075   40.2014  -24.0405 H   0  0  0  0  0  0
  -21.8678   39.7865  -24.2075 H   0  0  0  0  0  0
  -23.5923   40.3387  -26.6285 H   0  0  0  0  0  0
  -22.8443   41.6630  -25.6729 H   0  0  0  0  0  0
  -20.7260   39.7768  -26.3407 H   0  0  0  0  0  0
  -19.3361   40.2639  -28.1293 H   0  0  0  0  0  0
  -19.9380   41.4796  -29.4671 H   0  0  0  0  0  0
  -23.1571   42.0351  -27.8330 H   0  0  0  0  0  0
  -23.8551   38.2648  -21.3766 H   0  0  0  0  0  0
  -26.7163   37.8563  -22.2242 H   0  0  0  0  0  0
  -27.3731   37.0142  -19.9729 H   0  0  0  0  0  0
  -25.8368   38.4093  -18.5885 H   0  0  0  0  0  0
  -26.3145   35.3649  -21.5525 H   0  0  0  0  0  0
  -25.9769   34.9736  -19.8322 H   0  0  0  0  0  0
  -24.7127   35.7565  -20.8400 H   0  0  0  0  0  0
  -28.4297   39.0217  -20.9422 H   0  0  0  0  0  0
  -27.6401   41.8520  -20.7084 H   0  0  0  0  0  0
  -30.1712   40.4363  -19.7247 H   0  0  0  0  0  0
  -29.9316   42.2165  -19.7239 H   0  0  0  0  0  0
  -29.8984   42.2732  -22.1493 H   0  0  0  0  0  0
  -29.9234   40.4794  -22.2398 H   0  0  0  0  0  0
  -33.5063   42.1223  -22.5935 H   0  0  0  0  0  0
  -27.2196   43.1427  -18.8633 H   0  0  0  0  0  0
  -25.8415   41.4654  -16.8938 H   0  0  0  0  0  0
  -25.0353   43.6693  -17.6361 H   0  0  0  0  0  0
  -25.2185   43.6136  -15.8500 H   0  0  0  0  0  0
  -26.4512   44.4501  -16.8537 H   0  0  0  0  0  0
  -29.0326   43.0458  -17.0071 H   0  0  0  0  0  0
  -29.1522   43.1030  -14.0502 H   0  0  0  0  0  0
  -31.6140   43.6202  -14.4165 H   0  0  0  0  0  0
  -30.5106   44.6691  -15.3699 H   0  0  0  0  0  0
  -30.5335   44.3982  -17.9869 H   0  0  0  0  0  0
  -33.0540   41.5952  -14.5477 H   0  0  0  0  0  0
  -34.2139   41.2868  -19.4145 H   0  0  0  0  0  0
  -34.8288   40.0698  -15.3319 H   0  0  0  0  0  0
  -35.4219   39.9447  -17.7288 H   0  0  0  0  0  0
  -29.5798   40.5473  -16.4418 H   0  0  0  0  0  0
  -31.4579   39.1155  -14.7038 H   0  0  0  0  0  0
  -29.5624   38.1315  -16.9164 H   0  0  0  0  0  0
  -30.8404   37.1139  -16.1695 H   0  0  0  0  0  0
  -32.5502   38.3012  -17.1717 H   0  0  0  0  0  0
  -31.5204   39.7425  -17.4699 H   0  0  0  0  0  0
  -30.6000   38.8558  -19.3693 H   0  0  0  0  0  0
  -30.5784   37.1871  -18.7049 H   0  0  0  0  0  0
  -33.2839   38.1430  -19.1527 H   0  0  0  0  0  0
  -32.2791   38.2108  -20.6401 H   0  0  0  0  0  0
  -33.3427   36.0014  -20.3747 H   0  0  0  0  0  0
  -32.5587   35.8203  -18.7687 H   0  0  0  0  0  0
  -31.5539   35.8881  -20.2561 H   0  0  0  0  0  0
  -28.1226   39.8152  -14.2936 H   0  0  0  0  0  0
  -27.3112   37.1832  -13.3865 H   0  0  0  0  0  0
  -25.3986   38.3754  -12.1069 H   0  0  0  0  0  0
  -25.1575   37.7695  -14.4951 H   0  0  0  0  0  0
  -24.2141   39.2223  -14.0197 H   0  0  0  0  0  0
  -25.7418   39.4070  -14.9464 H   0  0  0  0  0  0
  -26.7429   40.3177  -11.3735 H   0  0  0  0  0  0
  -26.7026   40.9475  -13.0553 H   0  0  0  0  0  0
  -25.1749   40.7628  -12.1286 H   0  0  0  0  0  0
  -27.4288   36.0924  -11.3319 H   0  0  0  0  0  0
  -28.8900   37.9261   -9.3857 H   0  0  0  0  0  0
  -30.1993   35.9464  -10.6754 H   0  0  0  0  0  0
  -29.4631   34.9332   -9.3877 H   0  0  0  0  0  0
  -30.6408   36.0257   -7.7081 H   0  0  0  0  0  0
  -30.5161   38.3685   -8.4547 H   0  0  0  0  0  0
  -32.1945   37.9038   -8.0147 H   0  0  0  0  0  0
  -31.7209   38.0284   -9.7429 H   0  0  0  0  0  0
  -31.8824   34.3577   -9.1183 H   0  0  0  0  0  0
  -32.5081   35.7067  -10.1261 H   0  0  0  0  0  0
  -32.9817   35.5821   -8.3978 H   0  0  0  0  0  0
  -27.2461   34.7341   -9.5649 H   0  0  0  0  0  0
  -25.4523   34.4194   -7.7139 H   0  0  0  0  0  0
  -26.0069   36.2270   -6.1994 H   0  0  0  0  0  0
  -27.6620   35.5815   -5.9335 H   0  0  0  0  0  0
  -26.1444   34.9819   -4.0108 H   0  0  0  0  0  0
  -28.2981   31.6456   -8.1509 H   0  0  0  0  0  0
  1  2  1  0  0  0
  1 78  1  0  0  0
  1 79  1  0  0  0
  1 80  1  0  0  0
  2  3  1  0  0  0
  2  5  1  0  0  0
  2 81  1  0  0  0
  3  4  2  0  0  0
  3 12  1  0  0  0
  5  6  1  0  0  0
  5 82  1  0  0  0
  5 83  1  0  0  0
  6  7  1  0  0  0
  6 84  1  0  0  0
  6 85  1  0  0  0
  7  8  1  0  0  0
  7 86  1  0  0  0
  7 87  1  0  0  0
  8  9  1  0  0  0
  8 88  1  0  0  0
  9 10  1  0  0  0
  9 11  2  0  0  0
 10 89  1  0  0  0
 10 90  1  0  0  0
 11 91  1  0  0  0
 12 13  1  0  0  0
 12 92  1  0  0  0
 13 14  1  0  0  0
 13 16  1  0  0  0
 13 93  1  0  0  0
 14 15  2  0  0  0
 14 19  1  0  0  0
 16 17  1  0  0  0
 16 18  1  0  0  0
 16 94  1  0  0  0
 17 95  1  0  0  0
 18 96  1  0  0  0
 18 97  1  0  0  0
 18 98  1  0  0  0
 19 20  1  0  0  0
 19 99  1  0  0  0
 20 21  1  0  0  0
 20 23  1  0  0  0
 20100  1  0  0  0
 21 22  2  0  0  0
 21 28  1  0  0  0
 23 24  1  0  0  0
 23101  1  0  0  0
 23102  1  0  0  0
 24 25  1  0  0  0
 24103  1  0  0  0
 24104  1  0  0  0
 25 26  2  0  0  0
 25 27  1  0  0  0
 27105  1  0  0  0
 28 29  1  0  0  0
 28106  1  0  0  0
 29 30  1  0  0  0
 29 32  1  0  0  0
 29107  1  0  0  0
 30 31  2  0  0  0
 30 33  1  0  0  0
 32108  1  0  0  0
 32109  1  0  0  0
 32110  1  0  0  0
 33 34  1  0  0  0
 33111  1  0  0  0
 34 35  1  0  0  0
 34 37  1  0  0  0
 34112  1  0  0  0
 35 36  2  0  0  0
 35 47  1  0  0  0
 37 38  1  0  0  0
 37113  1  0  0  0
 37114  1  0  0  0
 38 39  2  0  0  0
 38 40  1  0  0  0
 39 41  1  0  0  0
 39115  1  0  0  0
 40 42  2  0  0  0
 40 43  1  0  0  0
 41 42  1  0  0  0
 42 44  1  0  0  0
 43 45  2  0  0  0
 43116  1  0  0  0
 44 46  2  0  0  0
 44117  1  0  0  0
 45 46  1  0  0  0
 45118  1  0  0  0
 46119  1  0  0  0
 47 48  1  0  0  0
 47120  1  0  0  0
 48 49  1  0  0  0
 48 51  1  0  0  0
 48121  1  0  0  0
 49 50  2  0  0  0
 49 56  1  0  0  0
 51 52  1  0  0  0
 51122  1  0  0  0
 51123  1  0  0  0
 52 53  1  0  0  0
 52124  1  0  0  0
 52125  1  0  0  0
 53 54  1  0  0  0
 53126  1  0  0  0
 53127  1  0  0  0
 54 55  1  0  0  0
 54128  1  0  0  0
 54129  1  0  0  0
 55130  1  0  0  0
 55131  1  0  0  0
 55132  1  0  0  0
 56 57  1  0  0  0
 56133  1  0  0  0
 57 58  1  0  0  0
 57 60  1  0  0  0
 57134  1  0  0  0
 58 59  2  0  0  0
 58 63  1  0  0  0
 60 61  1  0  0  0
 60 62  1  0  0  0
 60135  1  0  0  0
 61136  1  0  0  0
 61137  1  0  0  0
 61138  1  0  0  0
 62139  1  0  0  0
 62140  1  0  0  0
 62141  1  0  0  0
 63 64  1  0  0  0
 63142  1  0  0  0
 64 65  1  0  0  0
 64 67  1  0  0  0
 64143  1  0  0  0
 65 66  2  0  0  0
 65 71  1  0  0  0
 67 68  1  0  0  0
 67144  1  0  0  0
 67145  1  0  0  0
 68 69  1  0  0  0
 68 70  1  0  0  0
 68146  1  0  0  0
 69147  1  0  0  0
 69148  1  0  0  0
 69149  1  0  0  0
 70150  1  0  0  0
 70151  1  0  0  0
 70152  1  0  0  0
 71 72  1  0  0  0
 71153  1  0  0  0
 72 73  1  0  0  0
 72 75  1  0  0  0
 72154  1  0  0  0
 73 74  2  0  0  0
 73 77  1  0  0  0
 75 76  1  0  0  0
 75155  1  0  0  0
 75156  1  0  0  0
 76157  1  0  0  0
 77158  1  0  0  0
M  CHG  2   1   1  55   1
M  END
> <s_m_source_file>
../4xyn_ligand.sdf

> <i_m_source_file_index>
1

> <s_epik_input>
W0hdL049QyhbTkgyXSlcW05IXVtDSDJdW0NIMl1bQ0gyXVtDQEhdKFtOSDMrXSlDKD1PKVtOSF1bQ0BASF0oW0NASF0oW09IXSlbQ0gzXSlDKD1PKVtOSF1bQ0BASF0oW0NIMl1bQ0gyXUMoPU8pW09IXSlDKD1PKVtOSF1bQ0BASF0oW0NIM10pQyg9TylbTkhdW0NAQEhdKFtDSDJdYzFbY0hdW25IXWMoYzEyKVtjSF1bY0hdW2NIXVtjSF0yKUMoPU8pW05IXVtDQEBIXShbQ0gyXVtDSDJdW0NIMl1bQ0gyXVtOSDMrXSlDKD1PKVtOSF1bQ0BASF0oW0NIXShbQ0gzXSlbQ0gzXSlDKD1PKVtOSF1bQ0BASF0oW0NIMl1bQ0hdKFtDSDNdKVtDSDNdKUMoPU8pW05IXVtDQEhdKEMoPU8pW09IXSlbQ0gyXVtPSF0=

> <s_epik_cmdline>
J2VwaWtfYXBwJywgJy1pbWFlJywgJ2xpZ2FuZF9wcm8ubWFlJywgJy1vbWFlJywgJ2xpZ2FuZF9wcmVwLm1hZScsICctbXMnLCAnMScsICctcGgnLCAnNycsICctcGh0JywgJzAuNScsICctbnQn

> <s_epik_pKa_notes>
Molecule size exceeds maximum supported for generating protonation states

> <s_epik_Chemistry_Notes>
This compound has an imine and may undergo hydrolysis.

$$$$
