4y0a_ligand
                    3D
 Schrodinger Suite 2020-3.
 23 23  0  0  1  0            999 V2000
    3.0520    9.6830   20.0410 O   0  0  0  0  0  0
    4.1300   10.6260   20.0370 C   0  0  1  0  0  0
    5.2510   10.2410   20.7920 C   0  0  2  0  0  0
    6.2870   11.2570   20.7390 O   0  0  0  0  0  0
    5.9420    8.8870   20.2880 C   0  0  0  0  0  0
    6.0080    8.7230   18.7980 C   0  0  2  0  0  0
    6.7120    7.6110   18.1580 C   0  0  0  0  0  0
    6.8570    6.5550   18.8570 O   0  0  0  0  0  0
    7.0900    7.6870   16.9380 O   0  5  0  0  0  0
    5.3410    9.7610   17.9060 C   0  0  0  0  0  0
    4.5800   10.8410   18.4240 C   0  0  1  0  0  0
    3.3800   11.0020   17.6020 O   0  0  0  0  0  0
    2.5879    9.3822   20.9919 H   0  0  0  0  0  0
    3.7653   11.4493   20.6687 H   0  0  0  0  0  0
    4.7900   10.2052   21.7901 H   0  0  0  0  0  0
    6.0600   12.2903   21.0403 H   0  0  0  0  0  0
    6.9782    8.8456   20.6549 H   0  0  0  0  0  0
    5.3813    8.0232   20.6747 H   0  0  0  0  0  0
    6.9306    9.3215   18.7730 H   0  0  0  0  0  0
    6.1064   10.2748   17.3058 H   0  0  0  0  0  0
    4.6237    9.2630   17.2370 H   0  0  0  0  0  0
    5.2468   11.6916   18.2192 H   0  0  0  0  0  0
    2.6525   11.7921   17.8396 H   0  0  0  0  0  0
  1  2  1  0  0  0
  1 13  1  0  0  0
  2  3  1  0  0  0
  2 11  1  0  0  0
  2 14  1  0  0  0
  3  4  1  0  0  0
  3  5  1  0  0  0
  3 15  1  0  0  0
  4 16  1  0  0  0
  5  6  1  0  0  0
  5 17  1  0  0  0
  5 18  1  0  0  0
  6  7  1  0  0  0
  6 10  1  0  0  0
  6 19  1  0  0  0
  7  8  2  0  0  0
  7  9  1  0  0  0
 10 11  1  0  0  0
 10 20  1  0  0  0
 10 21  1  0  0  0
 11 12  1  0  0  0
 11 22  1  0  0  0
 12 23  1  0  0  0
M  CHG  1   9  -1
M  END
> <s_m_source_file>
../4y0a_ligand.sdf

> <i_m_source_file_index>
1

> <s_epik_input>
W09IXVtDQEhdMVtDQEhdKFtPSF0pW0NIMl1bQ0BIXShDKD1PKVtPSF0pW0NIMl1bQ0BIXTFbT0hd

> <s_epik_cmdline>
J2VwaWtfYXBwJywgJy1pbWFlJywgJ2xpZ2FuZF9wcm8ubWFlJywgJy1vbWFlJywgJ2xpZ2FuZF9wcmVwLm1hZScsICctbXMnLCAnMScsICctcGgnLCAnNycsICctcGh0JywgJzAuNScsICctbnQn

> <r_lp_tautomer_probability>
1

> <r_epik_Ionization_Penalty>
  0.0013

> <r_epik_Ionization_Penalty_Charging>
  0.0013

> <r_epik_Ionization_Penalty_Neutral>
  0.0000

> <r_epik_State_Penalty>
 -0.0000

> <r_epik_Charging_Adjusted_Penalty>
0.00128608497695726

> <i_epik_Tot_Q>
-1

> <i_epik_Tot_abs_Q>
1

$$$$
