4y16_ligand
                    3D
 Schrodinger Suite 2020-3.
179181  0  0  1  0            999 V2000
   20.6380   26.7820  -20.2140 C   0  0  1  0  0  0
   21.8990   26.9290  -21.0450 C   0  0  1  0  0  0
   21.6950   26.3900  -22.4630 C   0  0  0  0  0  0
   20.8570   27.4510  -18.8440 C   0  0  1  0  0  0
   31.7720   15.3450  -19.1950 C   0  0  0  0  0  0
   31.4370   15.6180  -20.6560 C   0  0  0  0  0  0
   31.6200   14.3270  -21.4690 C   0  0  0  0  0  0
   31.0720   14.5640  -22.8870 C   0  0  0  0  0  0
   32.0110   13.9370  -23.9190 C   0  0  0  0  0  0
   32.2770   14.8870  -25.0880 C   0  0  0  0  0  0
   33.7900   14.9770  -25.2700 C   0  0  0  0  0  0
   34.1190   15.8910  -26.4440 C   0  0  0  0  0  0
   35.4360   16.6150  -26.1780 C   0  0  0  0  0  0
   35.1370   18.0840  -25.8330 C   0  0  0  0  0  0
   35.6640   18.4170  -24.4250 C   0  0  0  0  0  0
   36.3800   19.7690  -24.4100 C   0  0  0  0  0  0
   35.6830   20.7030  -23.4120 C   0  0  0  0  0  0
   36.4000   20.6600  -22.0600 C   0  0  0  0  0  0
   35.5130   21.3120  -20.9940 C   0  0  0  0  0  0
   35.2200   20.2600  -19.9310 C   0  0  0  0  0  0
   34.4800   20.8840  -18.7610 C   0  0  0  0  0  0
   33.1240   20.1910  -18.5410 C   0  0  0  0  0  0
   31.9940   21.2290  -18.6770 C   0  0  0  0  0  0
   30.6380   20.6800  -18.2030 C   0  0  0  0  0  0
   29.7060   21.8430  -17.8070 C   0  0  0  0  0  0
   28.7210   22.1310  -18.9410 C   0  0  0  0  0  0
   27.5940   23.0390  -18.4230 C   0  0  0  0  0  0
   26.4650   23.0290  -19.4570 C   0  0  0  0  0  0
   25.4210   24.1180  -19.1590 C   0  0  0  0  0  0
   25.8740   25.5240  -19.5930 C   0  0  0  0  0  0
   26.4490   25.7150  -20.6630 O   0  0  0  0  0  0
   25.5680   26.5020  -18.7230 N   0  0  0  0  0  0
   25.9690   27.8970  -18.9420 C   0  0  2  0  0  0
   26.0500   28.5680  -17.5690 C   0  0  2  0  0  0
   26.4220   29.9400  -17.6980 O   0  0  0  0  0  0
   27.0410   27.8550  -16.6470 C   0  0  2  0  0  0
   27.0260   28.5490  -15.3960 O   0  0  0  0  0  0
   28.4610   27.7910  -17.2800 C   0  0  0  0  0  0
   29.5610   27.2980  -16.3040 C   0  0  0  0  0  0
   29.1910   26.0040  -15.5610 C   0  0  0  0  0  0
   30.4260   25.4560  -14.8170 C   0  0  0  0  0  0
   30.4380   25.9980  -13.3780 C   0  0  0  0  0  0
   31.7420   25.6470  -12.6390 C   0  0  0  0  0  0
   31.5830   26.0200  -11.1590 C   0  0  0  0  0  0
   32.8130   26.7670  -10.6710 C   0  0  0  0  0  0
   32.5340   27.5690   -9.3880 C   0  0  0  0  0  0
   33.2660   28.9310   -9.5230 C   0  0  0  0  0  0
   33.6170   29.5560   -8.1630 C   0  0  0  0  0  0
   33.4300   31.0850   -8.2640 C   0  0  0  0  0  0
   34.7770   31.8330   -8.2340 C   0  0  0  0  0  0
   34.6080   33.2050   -7.5520 C   0  0  0  0  0  0
   24.9350   28.6210  -19.8020 C   0  0  0  0  0  0
   23.6530   28.4310  -19.1920 O   0  0  0  0  0  0
   22.5380   28.9960  -19.8910 C   0  0  1  0  0  0
   22.2940   28.3180  -21.1550 O   0  0  0  0  0  0
   21.2850   28.9100  -19.0120 C   0  0  2  0  0  0
   21.5430   29.4760  -17.7340 O   0  0  0  0  0  0
   19.6400   27.4230  -18.0810 O   0  0  0  0  0  0
   19.5400   27.4260  -20.8790 O   0  0  0  0  0  0
   22.9650   25.9620  -22.9660 O   0  0  0  0  0  0
   23.1490   24.5950  -22.9200 C   0  0  0  0  0  0
   22.5710   23.8880  -22.0740 O   0  0  0  0  0  0
   24.0050   24.0430  -23.8150 N   0  0  0  0  0  0
   24.1650   22.6970  -23.9350 C   0  0  0  0  0  0
   25.4470   22.1470  -23.7220 C   0  0  0  0  0  0
   26.5240   22.9620  -23.3420 C   0  0  0  0  0  0
   27.7760   22.3840  -23.1250 C   0  0  0  0  0  0
   27.9480   21.0100  -23.2920 C   0  0  0  0  0  0
   26.8870   20.1950  -23.6770 C   0  0  0  0  0  0
   25.6380   20.7580  -23.8960 C   0  0  0  0  0  0
   24.5730   19.9320  -24.2840 C   0  0  0  0  0  0
   23.3020   20.4820  -24.5080 C   0  0  0  0  0  0
   23.1030   21.8610  -24.3500 C   0  0  0  0  0  0
   20.3605   25.7215  -20.1225 H   0  0  0  0  0  0
   22.7064   26.3985  -20.5190 H   0  0  0  0  0  0
   20.9942   25.5426  -22.4358 H   0  0  0  0  0  0
   21.2839   27.1854  -23.1020 H   0  0  0  0  0  0
   21.6050   26.8855  -18.2689 H   0  0  0  0  0  0
   31.6419   16.2677  -18.6104 H   0  0  0  0  0  0
   32.8149   15.0045  -19.1154 H   0  0  0  0  0  0
   31.1010   14.5657  -18.8044 H   0  0  0  0  0  0
   30.3941   15.9585  -20.7356 H   0  0  0  0  0  0
   32.1079   16.3973  -21.0466 H   0  0  0  0  0  0
   32.6890   14.0721  -21.5165 H   0  0  0  0  0  0
   31.0688   13.5075  -20.9847 H   0  0  0  0  0  0
   30.0761   14.1056  -22.9766 H   0  0  0  0  0  0
   30.9962   15.6452  -23.0749 H   0  0  0  0  0  0
   32.9722   13.6961  -23.4415 H   0  0  0  0  0  0
   31.5578   13.0165  -24.3156 H   0  0  0  0  0  0
   31.8031   14.4903  -25.9980 H   0  0  0  0  0  0
   31.8576   15.8776  -24.8582 H   0  0  0  0  0  0
   34.2458   15.3838  -24.3553 H   0  0  0  0  0  0
   34.1960   13.9738  -25.4670 H   0  0  0  0  0  0
   34.2113   15.2909  -27.3612 H   0  0  0  0  0  0
   33.3147   16.6309  -26.5693 H   0  0  0  0  0  0
   35.9554   16.1339  -25.3361 H   0  0  0  0  0  0
   36.0694   16.5657  -27.0760 H   0  0  0  0  0  0
   35.6288   18.7402  -26.5662 H   0  0  0  0  0  0
   34.0504   18.2532  -25.8602 H   0  0  0  0  0  0
   34.8220   18.4571  -23.7184 H   0  0  0  0  0  0
   36.3738   17.6396  -24.1058 H   0  0  0  0  0  0
   37.4282   19.6255  -24.1087 H   0  0  0  0  0  0
   36.3451   20.2136  -25.4155 H   0  0  0  0  0  0
   35.7031   21.7328  -23.7981 H   0  0  0  0  0  0
   34.6395   20.3824  -23.2770 H   0  0  0  0  0  0
   36.5988   19.6140  -21.7835 H   0  0  0  0  0  0
   37.3514   21.2074  -22.1319 H   0  0  0  0  0  0
   36.0422   22.1681  -20.5502 H   0  0  0  0  0  0
   34.5778   21.6593  -21.4575 H   0  0  0  0  0  0
   34.5981   19.4633  -20.3652 H   0  0  0  0  0  0
   36.1660   19.8307  -19.5694 H   0  0  0  0  0  0
   35.0840   20.7799  -17.8476 H   0  0  0  0  0  0
   34.3045   21.9506  -18.9649 H   0  0  0  0  0  0
   32.9901   19.4000  -19.2936 H   0  0  0  0  0  0
   33.0977   19.7477  -17.5346 H   0  0  0  0  0  0
   32.2343   22.1143  -18.0699 H   0  0  0  0  0  0
   31.8923   21.5243  -19.7317 H   0  0  0  0  0  0
   30.1715   20.1036  -19.0155 H   0  0  0  0  0  0
   30.7913   20.0268  -17.3313 H   0  0  0  0  0  0
   29.1456   21.5713  -16.9003 H   0  0  0  0  0  0
   30.3064   22.7436  -17.6109 H   0  0  0  0  0  0
   29.2477   22.6343  -19.7652 H   0  0  0  0  0  0
   28.2923   21.1850  -19.3034 H   0  0  0  0  0  0
   27.2290   22.6564  -17.4584 H   0  0  0  0  0  0
   27.9783   24.0611  -18.2902 H   0  0  0  0  0  0
   26.8830   23.2111  -20.4581 H   0  0  0  0  0  0
   25.9626   22.0506  -19.4419 H   0  0  0  0  0  0
   24.4883   23.8883  -19.6950 H   0  0  0  0  0  0
   25.2237   24.1507  -18.0773 H   0  0  0  0  0  0
   24.9977   26.2285  -17.8230 H   0  0  0  0  0  0
   26.9366   27.8970  -19.4651 H   0  0  0  0  0  0
   25.0478   28.5774  -17.1156 H   0  0  0  0  0  0
   25.8229   30.6156  -18.3262 H   0  0  0  0  0  0
   26.7243   26.8276  -16.4144 H   0  0  0  0  0  0
   26.0823   28.6653  -14.8429 H   0  0  0  0  0  0
   28.4503   27.0995  -18.1354 H   0  0  0  0  0  0
   28.7551   28.7939  -17.6230 H   0  0  0  0  0  0
   30.4869   27.1012  -16.8643 H   0  0  0  0  0  0
   29.7496   28.0703  -15.5437 H   0  0  0  0  0  0
   28.3926   26.2141  -14.8341 H   0  0  0  0  0  0
   28.8400   25.2533  -16.2844 H   0  0  0  0  0  0
   30.3831   24.3571  -14.7951 H   0  0  0  0  0  0
   31.3402   25.7769  -15.3379 H   0  0  0  0  0  0
   30.3393   27.0934  -13.3980 H   0  0  0  0  0  0
   29.5978   25.5644  -12.8158 H   0  0  0  0  0  0
   31.9385   24.5689  -12.7340 H   0  0  0  0  0  0
   32.5767   26.2120  -13.0796 H   0  0  0  0  0  0
   30.6989   26.6629  -11.0358 H   0  0  0  0  0  0
   31.4570   25.1049  -10.5617 H   0  0  0  0  0  0
   33.6175   26.0481  -10.4567 H   0  0  0  0  0  0
   33.1471   27.4703  -11.4480 H   0  0  0  0  0  0
   31.4502   27.7234   -9.2805 H   0  0  0  0  0  0
   32.9132   27.0127   -8.5181 H   0  0  0  0  0  0
   34.2040   28.7895  -10.0798 H   0  0  0  0  0  0
   32.6226   29.6412  -10.0631 H   0  0  0  0  0  0
   32.9515   29.1466   -7.3887 H   0  0  0  0  0  0
   34.6615   29.3213   -7.9102 H   0  0  0  0  0  0
   32.9211   31.3306   -9.2078 H   0  0  0  0  0  0
   32.8222   31.4368   -7.4173 H   0  0  0  0  0  0
   35.5134   31.2396   -7.6722 H   0  0  0  0  0  0
   35.1357   31.9838   -9.2629 H   0  0  0  0  0  0
   35.5753   33.7285   -7.5368 H   0  0  0  0  0  0
   34.2530   33.0607   -6.5209 H   0  0  0  0  0  0
   33.8751   33.8048   -8.1116 H   0  0  0  0  0  0
   25.1820   29.6919  -19.8486 H   0  0  0  0  0  0
   24.9422   28.1985  -20.8176 H   0  0  0  0  0  0
   22.8343   30.0269  -20.1346 H   0  0  0  0  0  0
   20.4717   29.5160  -19.4378 H   0  0  0  0  0  0
   20.7498   29.4987  -16.9722 H   0  0  0  0  0  0
   19.1602   26.4615  -17.8460 H   0  0  0  0  0  0
   19.2272   27.0878  -21.8779 H   0  0  0  0  0  0
   24.6006   24.6888  -24.4769 H   0  0  0  0  0  0
   26.3845   24.0358  -23.2175 H   0  0  0  0  0  0
   28.6191   23.0064  -22.8251 H   0  0  0  0  0  0
   28.9288   20.5673  -23.1183 H   0  0  0  0  0  0
   27.0364   19.1229  -23.8054 H   0  0  0  0  0  0
   24.7330   18.8614  -24.4117 H   0  0  0  0  0  0
   22.4724   19.8399  -24.8037 H   0  0  0  0  0  0
   22.1217   22.2919  -24.5487 H   0  0  0  0  0  0
  1  2  1  0  0  0
  1  4  1  0  0  0
  1 59  1  0  0  0
  1 74  1  0  0  0
  2  3  1  0  0  0
  2 55  1  0  0  0
  2 75  1  0  0  0
  3 60  1  0  0  0
  3 76  1  0  0  0
  3 77  1  0  0  0
  4 56  1  0  0  0
  4 58  1  0  0  0
  4 78  1  0  0  0
  5  6  1  0  0  0
  5 79  1  0  0  0
  5 80  1  0  0  0
  5 81  1  0  0  0
  6  7  1  0  0  0
  6 82  1  0  0  0
  6 83  1  0  0  0
  7  8  1  0  0  0
  7 84  1  0  0  0
  7 85  1  0  0  0
  8  9  1  0  0  0
  8 86  1  0  0  0
  8 87  1  0  0  0
  9 10  1  0  0  0
  9 88  1  0  0  0
  9 89  1  0  0  0
 10 11  1  0  0  0
 10 90  1  0  0  0
 10 91  1  0  0  0
 11 12  1  0  0  0
 11 92  1  0  0  0
 11 93  1  0  0  0
 12 13  1  0  0  0
 12 94  1  0  0  0
 12 95  1  0  0  0
 13 14  1  0  0  0
 13 96  1  0  0  0
 13 97  1  0  0  0
 14 15  1  0  0  0
 14 98  1  0  0  0
 14 99  1  0  0  0
 15 16  1  0  0  0
 15100  1  0  0  0
 15101  1  0  0  0
 16 17  1  0  0  0
 16102  1  0  0  0
 16103  1  0  0  0
 17 18  1  0  0  0
 17104  1  0  0  0
 17105  1  0  0  0
 18 19  1  0  0  0
 18106  1  0  0  0
 18107  1  0  0  0
 19 20  1  0  0  0
 19108  1  0  0  0
 19109  1  0  0  0
 20 21  1  0  0  0
 20110  1  0  0  0
 20111  1  0  0  0
 21 22  1  0  0  0
 21112  1  0  0  0
 21113  1  0  0  0
 22 23  1  0  0  0
 22114  1  0  0  0
 22115  1  0  0  0
 23 24  1  0  0  0
 23116  1  0  0  0
 23117  1  0  0  0
 24 25  1  0  0  0
 24118  1  0  0  0
 24119  1  0  0  0
 25 26  1  0  0  0
 25120  1  0  0  0
 25121  1  0  0  0
 26 27  1  0  0  0
 26122  1  0  0  0
 26123  1  0  0  0
 27 28  1  0  0  0
 27124  1  0  0  0
 27125  1  0  0  0
 28 29  1  0  0  0
 28126  1  0  0  0
 28127  1  0  0  0
 29 30  1  0  0  0
 29128  1  0  0  0
 29129  1  0  0  0
 30 31  2  0  0  0
 30 32  1  0  0  0
 32 33  1  0  0  0
 32130  1  0  0  0
 33 34  1  0  0  0
 33 52  1  0  0  0
 33131  1  0  0  0
 34 35  1  0  0  0
 34 36  1  0  0  0
 34132  1  0  0  0
 35133  1  0  0  0
 36 37  1  0  0  0
 36 38  1  0  0  0
 36134  1  0  0  0
 37135  1  0  0  0
 38 39  1  0  0  0
 38136  1  0  0  0
 38137  1  0  0  0
 39 40  1  0  0  0
 39138  1  0  0  0
 39139  1  0  0  0
 40 41  1  0  0  0
 40140  1  0  0  0
 40141  1  0  0  0
 41 42  1  0  0  0
 41142  1  0  0  0
 41143  1  0  0  0
 42 43  1  0  0  0
 42144  1  0  0  0
 42145  1  0  0  0
 43 44  1  0  0  0
 43146  1  0  0  0
 43147  1  0  0  0
 44 45  1  0  0  0
 44148  1  0  0  0
 44149  1  0  0  0
 45 46  1  0  0  0
 45150  1  0  0  0
 45151  1  0  0  0
 46 47  1  0  0  0
 46152  1  0  0  0
 46153  1  0  0  0
 47 48  1  0  0  0
 47154  1  0  0  0
 47155  1  0  0  0
 48 49  1  0  0  0
 48156  1  0  0  0
 48157  1  0  0  0
 49 50  1  0  0  0
 49158  1  0  0  0
 49159  1  0  0  0
 50 51  1  0  0  0
 50160  1  0  0  0
 50161  1  0  0  0
 51162  1  0  0  0
 51163  1  0  0  0
 51164  1  0  0  0
 52 53  1  0  0  0
 52165  1  0  0  0
 52166  1  0  0  0
 53 54  1  0  0  0
 54 55  1  0  0  0
 54 56  1  0  0  0
 54167  1  0  0  0
 56 57  1  0  0  0
 56168  1  0  0  0
 57169  1  0  0  0
 58170  1  0  0  0
 59171  1  0  0  0
 60 61  1  0  0  0
 61 62  2  0  0  0
 61 63  1  0  0  0
 63 64  1  0  0  0
 63172  1  0  0  0
 64 65  2  0  0  0
 64 73  1  0  0  0
 65 66  1  0  0  0
 65 70  1  0  0  0
 66 67  2  0  0  0
 66173  1  0  0  0
 67 68  1  0  0  0
 67174  1  0  0  0
 68 69  2  0  0  0
 68175  1  0  0  0
 69 70  1  0  0  0
 69176  1  0  0  0
 70 71  2  0  0  0
 71 72  1  0  0  0
 71177  1  0  0  0
 72 73  2  0  0  0
 72178  1  0  0  0
 73179  1  0  0  0
M  END
> <s_m_source_file>
../4y16_ligand.sdf

> <i_m_source_file_index>
1

> <s_epik_input>
W2NIXTFbY0hdW2NIXVtjSF1jKGMxMilbY0hdW2NIXVtjSF1jMltOSF1DKD1PKU9bQ0gyXVtDQEhdKFtDQEBIXTNbT0hdKU9bQ0BASF0oW0NASF0oW09IXSlbQ0BIXTNbT0hdKU9bQ0gyXVtDQEBIXShbQ0BIXShbT0hdKVtDQEhdKFtPSF0pW0NIMl1bQ0gyXVtDSDJdW0NIMl1bQ0gyXVtDSDJdW0NIMl1bQ0gyXVtDSDJdW0NIMl1bQ0gyXVtDSDJdW0NIMl1bQ0gzXSlbTkhdQyg9TylbQ0gyXVtDSDJdW0NIMl1bQ0gyXVtDSDJdW0NIMl1bQ0gyXVtDSDJdW0NIMl1bQ0gyXVtDSDJdW0NIMl1bQ0gyXVtDSDJdW0NIMl1bQ0gyXVtDSDJdW0NIMl1bQ0gyXVtDSDJdW0NIMl1bQ0gyXVtDSDJdW0NIMl1bQ0gzXQ==

> <s_epik_cmdline>
J2VwaWtfYXBwJywgJy1pbWFlJywgJ2xpZ2FuZF9wcm8ubWFlJywgJy1vbWFlJywgJ2xpZ2FuZF9wcmVwLm1hZScsICctbXMnLCAnMScsICctcGgnLCAnNycsICctcGh0JywgJzAuNScsICctbnQn

> <s_epik_pKa_notes>
Molecule size exceeds maximum supported for generating protonation states

> <s_epik_Chemistry_Notes>
This compound has an ester and may undergo hydrolysis at high or low pH. This compound contains an acetal/aminal-like group ( X-CH(R)-Y where X, Y are N, S, or O) that may be acid/base labile, releasing an aldehyde.

$$$$
