4y29_ligand
                    3D
 Schrodinger Suite 2020-3.
 45 49  0  0  1  0            999 V2000
    2.9130   -4.0920   24.6990 C   0  0  0  0  0  0
    3.5210   -3.2160   23.7770 C   0  0  0  0  0  0
    2.8090   -2.0140   23.4410 C   0  0  0  0  0  0
    1.5650   -1.7060   23.9850 C   0  0  0  0  0  0
    4.7900   -3.4880   23.1800 C   0  0  0  0  0  0
    5.2470   -2.5040   22.2910 C   0  0  0  0  0  0
    4.5290   -1.3550   21.9860 C   0  0  0  0  0  0
    3.2980   -1.0700   22.5510 C   0  0  0  0  0  0
    5.5740   -4.5800   23.4080 N   0  0  0  0  0  0
    6.4600   -2.6150   21.6400 C   0  0  0  0  0  0
    7.2910   -3.7210   21.8850 C   0  0  0  0  0  0
    6.8430   -4.7500   22.7500 C   0  0  0  0  0  0
    5.1720   -5.6650   24.3570 C   0  0  0  0  0  0
    8.8130   -2.6920   20.3630 C   0  0  0  0  0  0
    7.9820   -1.5870   20.1550 C   0  0  0  0  0  0
    6.7540   -1.5520   20.7880 C   0  0  0  0  0  0
    8.5290   -3.7870   21.2400 C   0  0  0  0  0  0
    9.3540   -4.9940   21.4320 O   0  0  0  0  0  0
   10.8130   -5.2580   21.5340 C   0  0  0  0  0  0
    9.9690   -2.6680   19.6310 O   0  0  0  0  0  0
    9.9000   -1.3340   18.9720 C   0  0  0  0  0  0
    1.7110   -3.7470   25.1960 C   0  0  0  0  0  0
    1.0590   -2.6030   24.8410 C   0  0  0  0  0  0
    0.9560   -4.4580   26.1080 O   0  0  0  0  0  0
   -0.4540   -3.9090   25.9270 C   0  0  0  0  0  0
   -0.1520   -2.5010   25.4950 O   0  0  0  0  0  0
    3.4009   -5.0192   24.9997 H   0  0  0  0  0  0
    1.0343   -0.7889   23.7293 H   0  0  0  0  0  0
    4.9524   -0.6484   21.2722 H   0  0  0  0  0  0
    2.7475   -0.1603   22.3113 H   0  0  0  0  0  0
    7.6366   -4.8522   23.5048 H   0  0  0  0  0  0
    6.8134   -5.6543   22.1243 H   0  0  0  0  0  0
    4.1917   -5.4248   24.7945 H   0  0  0  0  0  0
    5.9210   -5.7473   25.1584 H   0  0  0  0  0  0
    5.1078   -6.6204   23.8156 H   0  0  0  0  0  0
    8.2965   -0.7693   19.5064 H   0  0  0  0  0  0
    6.0510   -0.7344   20.6289 H   0  0  0  0  0  0
   10.9814   -6.3354   21.6787 H   0  0  0  0  0  0
   11.2269   -4.7040   22.3894 H   0  0  0  0  0  0
   11.3105   -4.9300   20.6094 H   0  0  0  0  0  0
   10.7902   -1.1897   18.3421 H   0  0  0  0  0  0
    9.8627   -0.5472   19.7399 H   0  0  0  0  0  0
    8.9962   -1.2799   18.3474 H   0  0  0  0  0  0
   -0.9828   -4.5007   25.1653 H   0  0  0  0  0  0
   -0.9970   -3.9710   26.8816 H   0  0  0  0  0  0
  1  2  2  0  0  0
  1 22  1  0  0  0
  1 27  1  0  0  0
  2  3  1  0  0  0
  2  5  1  0  0  0
  3  4  2  0  0  0
  3  8  1  0  0  0
  4 23  1  0  0  0
  4 28  1  0  0  0
  5  6  2  0  0  0
  5  9  1  0  0  0
  6  7  1  0  0  0
  6 10  1  0  0  0
  7  8  2  0  0  0
  7 29  1  0  0  0
  8 30  1  0  0  0
  9 12  1  0  0  0
  9 13  1  0  0  0
 10 11  2  0  0  0
 10 16  1  0  0  0
 11 12  1  0  0  0
 11 17  1  0  0  0
 12 31  1  0  0  0
 12 32  1  0  0  0
 13 33  1  0  0  0
 13 34  1  0  0  0
 13 35  1  0  0  0
 14 15  1  0  0  0
 14 17  2  0  0  0
 14 20  1  0  0  0
 15 16  2  0  0  0
 15 36  1  0  0  0
 16 37  1  0  0  0
 17 18  1  0  0  0
 18 19  1  0  0  0
 19 38  1  0  0  0
 19 39  1  0  0  0
 19 40  1  0  0  0
 20 21  1  0  0  0
 21 41  1  0  0  0
 21 42  1  0  0  0
 21 43  1  0  0  0
 22 23  2  0  0  0
 22 24  1  0  0  0
 23 26  1  0  0  0
 24 25  1  0  0  0
 25 26  1  0  0  0
 25 44  1  0  0  0
 25 45  1  0  0  0
M  END
> <s_m_source_file>
../4y29_ligand.sdf

> <i_m_source_file_index>
1

> <s_epik_input>
TzFbQ0gyXU9jKFtjSF0yKWMxW2NIXWMoYzIzKVtjSF1bY0hdYzRjM04oW0NIM10pW0NIMl1jNWM0W2NIXVtjSF1jKE9bQ0gzXSljNU9bQ0gzXQ==

> <s_epik_cmdline>
J2VwaWtfYXBwJywgJy1pbWFlJywgJ2xpZ2FuZF9wcm8ubWFlJywgJy1vbWFlJywgJ2xpZ2FuZF9wcmVwLm1hZScsICctbXMnLCAnMScsICctcGgnLCAnNycsICctcGh0JywgJzAuNScsICctbnQn

> <r_lp_tautomer_probability>
1

> <r_epik_Ionization_Penalty>
  0.0004

> <r_epik_Ionization_Penalty_Charging>
  0.0000

> <r_epik_Ionization_Penalty_Neutral>
  0.0004

> <r_epik_State_Penalty>
 -0.0000

> <r_epik_Charging_Adjusted_Penalty>
0

> <i_epik_Tot_Q>
0

> <i_epik_Tot_abs_Q>
0

> <s_epik_Chemistry_Notes>
This compound contains an acetal/aminal-like group ( X-CH(R)-Y where X, Y are N, S, or O) that may be acid/base labile, releasing an aldehyde.

$$$$
