4y2b_ligand
                    3D
 Schrodinger Suite 2020-3.
 45 47  0  0  1  0            999 V2000
  -45.6810   25.0970   -0.6960 C   0  0  0  0  0  0
  -46.0270   26.2260   -1.3900 C   0  0  0  0  0  0
  -43.6650   26.8250   -1.4480 C   0  0  3  0  0  0
  -43.3200   25.6250   -0.7300 N   0  0  3  0  0  0
  -45.0390   27.1110   -1.7960 N   0  0  0  0  0  0
  -44.3350   24.7630   -0.3840 C   0  0  1  0  0  0
  -47.4490   26.3640   -1.6310 C   0  0  0  0  0  0
  -47.1480   24.2310   -0.3050 S   0  0  0  0  0  0
  -48.2050   25.3340   -1.1010 C   0  0  0  0  0  0
  -42.6890   27.7630   -1.8830 N   0  3  2  0  0  0
  -43.9990   23.6280    0.3080 O   0  0  0  0  0  0
  -48.0410   27.4590   -2.4100 C   0  0  0  0  0  0
  -48.2760   29.6560   -3.3950 N   0  0  0  0  0  0
  -41.9370   25.2830   -0.3840 C   0  0  0  0  0  0
  -47.5160   28.7450   -2.5170 C   0  0  0  0  0  0
  -43.1930   28.9960   -2.4960 C   0  0  0  0  0  0
  -49.3460   29.2270   -4.0410 C   0  0  0  0  0  0
  -49.2200   26.9790   -3.1260 C   0  0  0  0  0  0
  -41.3210   24.5580   -1.5650 C   0  0  0  0  0  0
  -43.4670   29.9290   -1.3470 C   0  0  0  0  0  0
  -42.0800   29.5570   -3.3330 C   0  0  0  0  0  0
  -49.8800   27.8440   -3.8800 C   0  0  0  0  0  0
  -42.9967   26.5224   -0.6284 H   0  0  0  0  0  0
  -45.2836   28.0158   -2.3717 H   0  0  0  0  0  0
  -44.4136   23.8046   -0.9182 H   0  0  0  0  0  0
  -49.2881   25.2366   -1.1747 H   0  0  0  0  0  0
  -42.0790   28.0820   -1.0250 H   0  0  0  0  0  0
  -44.7805   22.9126    0.6038 H   0  0  0  0  0  0
  -41.3744   26.2035   -0.1692 H   0  0  0  0  0  0
  -41.9310   24.6339    0.5041 H   0  0  0  0  0  0
  -46.6124   29.0549   -1.9921 H   0  0  0  0  0  0
  -44.0875   28.8222   -3.1121 H   0  0  0  0  0  0
  -49.8582   29.9107   -4.7179 H   0  0  0  0  0  0
  -49.5459   25.9422   -3.0422 H   0  0  0  0  0  0
  -40.2805   24.2904   -1.3288 H   0  0  0  0  0  0
  -41.3396   25.2137   -2.4480 H   0  0  0  0  0  0
  -41.8961   23.6441   -1.7748 H   0  0  0  0  0  0
  -44.2821   29.5220   -0.7306 H   0  0  0  0  0  0
  -43.7595   30.9150   -1.7371 H   0  0  0  0  0  0
  -42.5596   30.0317   -0.7337 H   0  0  0  0  0  0
  -41.8760   28.8783   -4.1743 H   0  0  0  0  0  0
  -41.1744   29.6602   -2.7172 H   0  0  0  0  0  0
  -42.3742   30.5435   -3.7206 H   0  0  0  0  0  0
  -50.8036   27.5486   -4.3777 H   0  0  0  0  0  0
  -42.0417   27.2947   -2.6391 H   0  0  0  0  0  0
  1  2  2  0  0  0
  1  6  1  0  0  0
  1  8  1  0  0  0
  2  5  1  0  0  0
  2  7  1  0  0  0
  3  4  1  0  0  0
  3  5  1  0  0  0
  3 10  1  0  0  0
  3 23  1  0  0  0
  4  6  1  0  0  0
  4 14  1  0  0  0
  5 24  1  0  0  0
  6 11  1  0  0  0
  6 25  1  0  0  0
  7  9  2  0  0  0
  7 12  1  0  0  0
  8  9  1  0  0  0
  9 26  1  0  0  0
 10 16  1  0  0  0
 10 27  1  0  0  0
 10 45  1  0  0  0
 11 28  1  0  0  0
 12 15  2  0  0  0
 12 18  1  0  0  0
 13 15  1  0  0  0
 13 17  2  0  0  0
 14 19  1  0  0  0
 14 29  1  0  0  0
 14 30  1  0  0  0
 15 31  1  0  0  0
 16 20  1  0  0  0
 16 21  1  0  0  0
 16 32  1  0  0  0
 17 22  1  0  0  0
 17 33  1  0  0  0
 18 22  2  0  0  0
 18 34  1  0  0  0
 19 35  1  0  0  0
 19 36  1  0  0  0
 19 37  1  0  0  0
 20 38  1  0  0  0
 20 39  1  0  0  0
 20 40  1  0  0  0
 21 41  1  0  0  0
 21 42  1  0  0  0
 21 43  1  0  0  0
 22 44  1  0  0  0
M  CHG  1  10   1
M  END
> <s_m_source_file>
../4y2b_ligand.sdf

> <i_m_source_file_index>
1

> <s_epik_input>
W09IXVtDQEBIXTFOKFtDSDJdW0NIM10pW0NIXShbTkhdW0NIXShbQ0gzXSlbQ0gzXSlbTkhdYyhjMTIpYyhbY0hdczIpLWMzW2NIXW5bY0hdW2NIXVtjSF0z

> <s_epik_cmdline>
J2VwaWtfYXBwJywgJy1pbWFlJywgJ2xpZ2FuZF9wcm8ubWFlJywgJy1vbWFlJywgJ2xpZ2FuZF9wcmVwLm1hZScsICctbXMnLCAnMScsICctcGgnLCAnNycsICctcGh0JywgJzAuNScsICctbnQn

> <r_lp_tautomer_probability>
1

> <r_epik_Ionization_Penalty>
  0.0177

> <r_epik_Ionization_Penalty_Charging>
  0.0107

> <r_epik_Ionization_Penalty_Neutral>
  0.0069

> <r_epik_State_Penalty>
 -0.0000

> <r_epik_Charging_Adjusted_Penalty>
0.0107409671557872

> <i_epik_Tot_Q>
1

> <i_epik_Tot_abs_Q>
1

> <s_epik_Chemistry_Notes>
This compound contains an acetal/aminal-like group ( X-CH(R)-Y where X, Y are N, S, or O) that may be acid/base labile, releasing an aldehyde.

$$$$
