4y2j_ligand
                    3D
 Schrodinger Suite 2020-3.
 34 35  0  0  1  0            999 V2000
  -16.9500  -13.0250   70.0960 C   0  0  0  0  0  0
  -16.8970  -13.3380   68.7360 C   0  0  0  0  0  0
  -17.5810  -11.8720   70.5220 C   0  0  0  0  0  0
  -17.4820  -12.4930   67.8060 C   0  0  0  0  0  0
  -18.1880  -11.0670   69.5620 C   0  0  0  0  0  0
  -18.6640   -6.8450   63.0680 C   0  0  0  0  0  0
  -18.3620   -6.5390   61.7600 C   0  0  0  0  0  0
  -18.1460  -11.3460   68.2050 C   0  0  0  0  0  0
  -17.4580   -7.2410   63.6790 C   0  0  0  0  0  0
  -16.2380   -6.5800   60.4290 C   0  0  0  0  0  0
  -18.7990  -10.4140   67.2010 C   0  0  0  0  0  0
  -17.2340   -7.6700   65.0910 C   0  0  0  0  0  0
  -17.9130   -9.2220   66.7910 C   0  0  0  0  0  0
  -16.4560   -7.1570   62.7930 N   0  0  0  0  0  0
  -17.0280   -6.7440   61.6430 N   0  0  0  0  0  0
  -18.0190   -8.8790   65.3630 N   0  3  0  0  0  0
  -16.4915  -13.6934   70.8248 H   0  0  0  0  0  0
  -16.3952  -14.2475   68.4056 H   0  0  0  0  0  0
  -17.6029  -11.6010   71.5775 H   0  0  0  0  0  0
  -17.4182  -12.7353   66.7452 H   0  0  0  0  0  0
  -18.7211  -10.1758   69.8930 H   0  0  0  0  0  0
  -19.6454   -6.7913   63.5392 H   0  0  0  0  0  0
  -19.0498   -6.2033   60.9839 H   0  0  0  0  0  0
  -16.8894   -6.2385   59.6110 H   0  0  0  0  0  0
  -15.7808   -7.5426   60.1562 H   0  0  0  0  0  0
  -15.4477   -5.8351   60.6037 H   0  0  0  0  0  0
  -19.0391  -10.9727   66.2844 H   0  0  0  0  0  0
  -19.7232  -10.0009   67.6313 H   0  0  0  0  0  0
  -16.1658   -7.8833   65.2443 H   0  0  0  0  0  0
  -17.5490   -6.8663   65.7728 H   0  0  0  0  0  0
  -18.2061   -8.3320   67.3672 H   0  0  0  0  0  0
  -16.8590   -9.4609   66.9961 H   0  0  0  0  0  0
  -19.0732   -8.6970   65.1068 H   0  0  0  0  0  0
  -17.6327   -9.7113   64.7563 H   0  0  0  0  0  0
  1  2  2  0  0  0
  1  3  1  0  0  0
  1 17  1  0  0  0
  2  4  1  0  0  0
  2 18  1  0  0  0
  3  5  2  0  0  0
  3 19  1  0  0  0
  4  8  2  0  0  0
  4 20  1  0  0  0
  5  8  1  0  0  0
  5 21  1  0  0  0
  6  7  2  0  0  0
  6  9  1  0  0  0
  6 22  1  0  0  0
  7 15  1  0  0  0
  7 23  1  0  0  0
  8 11  1  0  0  0
  9 12  1  0  0  0
  9 14  2  0  0  0
 10 15  1  0  0  0
 10 24  1  0  0  0
 10 25  1  0  0  0
 10 26  1  0  0  0
 11 13  1  0  0  0
 11 27  1  0  0  0
 11 28  1  0  0  0
 12 16  1  0  0  0
 12 29  1  0  0  0
 12 30  1  0  0  0
 13 16  1  0  0  0
 13 31  1  0  0  0
 13 32  1  0  0  0
 14 15  1  0  0  0
 16 33  1  0  0  0
 16 34  1  0  0  0
M  CHG  1  16   1
M  END
> <s_m_source_file>
../4y2j_ligand.sdf

> <i_m_source_file_index>
1

> <s_epik_input>
W2NIXTFbY0hdW2NIXVtjSF1bY0hdYzFbQ0gyXVtDSDJdW05IMitdW0NIMl1jMltjSF1bY0hdbihuMilbQ0gzXQ==

> <s_epik_cmdline>
J2VwaWtfYXBwJywgJy1pbWFlJywgJ2xpZ2FuZF9wcm8ubWFlJywgJy1vbWFlJywgJ2xpZ2FuZF9wcmVwLm1hZScsICctbXMnLCAnMScsICctcGgnLCAnNycsICctcGh0JywgJzAuNScsICctbnQn

> <r_lp_tautomer_probability>
1

> <r_epik_Ionization_Penalty>
  0.0049

> <r_epik_Ionization_Penalty_Charging>
  0.0049

> <r_epik_Ionization_Penalty_Neutral>
  0.0000

> <r_epik_State_Penalty>
 -0.0000

> <r_epik_Charging_Adjusted_Penalty>
0.00493297282503529

> <i_epik_Tot_Q>
1

> <i_epik_Tot_abs_Q>
1

$$$$
