4y2p_ligand
                    3D
 Schrodinger Suite 2020-3.
 30 31  0  0  1  0            999 V2000
  -17.0790  -10.9270   71.5790 C   0  0  0  0  0  0
  -17.5430   -8.5610   66.7620 C   0  0  0  0  0  0
  -18.7180   -9.2320   66.1940 N   0  3  0  0  0  0
  -19.4100  -10.0020   67.2520 C   0  0  0  0  0  0
  -18.5460  -10.9050   68.1060 C   0  0  0  0  0  0
  -18.2260  -10.5250   69.3990 C   0  0  0  0  0  0
  -17.4290  -11.3300   70.2200 C   0  0  0  0  0  0
  -16.9570  -12.5310   69.7180 C   0  0  0  0  0  0
  -17.2630  -12.9260   68.4250 C   0  0  0  0  0  0
  -18.0480  -12.0950   67.6280 C   0  0  0  0  0  0
  -16.7260   -9.6190   71.8970 C   0  0  0  0  0  0
  -16.2950   -9.2170   73.1140 N   0  0  0  0  0  0
  -16.2400  -10.1500   74.0780 C   0  0  0  0  0  0
  -16.6150  -11.4630   73.8750 C   0  0  0  0  0  0
  -17.0140  -11.8420   72.6070 C   0  0  0  0  0  0
  -17.0305   -7.9896   65.9741 H   0  0  0  0  0  0
  -16.8553   -9.3134   67.1755 H   0  0  0  0  0  0
  -17.8624   -7.8771   67.5621 H   0  0  0  0  0  0
  -19.4057   -8.4796   65.7805 H   0  0  0  0  0  0
  -18.3986   -9.9159   65.3938 H   0  0  0  0  0  0
  -19.8999   -9.3073   67.9502 H   0  0  0  0  0  0
  -20.1667  -10.6560   66.7941 H   0  0  0  0  0  0
  -18.6034   -9.5782   69.7852 H   0  0  0  0  0  0
  -16.3385  -13.1724   70.3459 H   0  0  0  0  0  0
  -16.8941  -13.8752   68.0363 H   0  0  0  0  0  0
  -18.2722  -12.3942   66.6041 H   0  0  0  0  0  0
  -16.8021   -8.8672   71.1114 H   0  0  0  0  0  0
  -15.8831   -9.8575   75.0655 H   0  0  0  0  0  0
  -16.5969  -12.1824   74.6937 H   0  0  0  0  0  0
  -17.2815  -12.8815   72.4173 H   0  0  0  0  0  0
  1  7  1  0  0  0
  1 11  2  0  0  0
  1 15  1  0  0  0
  2  3  1  0  0  0
  2 16  1  0  0  0
  2 17  1  0  0  0
  2 18  1  0  0  0
  3  4  1  0  0  0
  3 19  1  0  0  0
  3 20  1  0  0  0
  4  5  1  0  0  0
  4 21  1  0  0  0
  4 22  1  0  0  0
  5  6  2  0  0  0
  5 10  1  0  0  0
  6  7  1  0  0  0
  6 23  1  0  0  0
  7  8  2  0  0  0
  8  9  1  0  0  0
  8 24  1  0  0  0
  9 10  2  0  0  0
  9 25  1  0  0  0
 10 26  1  0  0  0
 11 12  1  0  0  0
 11 27  1  0  0  0
 12 13  2  0  0  0
 13 14  1  0  0  0
 13 28  1  0  0  0
 14 15  2  0  0  0
 14 29  1  0  0  0
 15 30  1  0  0  0
M  CHG  1   3   1
M  END
> <s_m_source_file>
../4y2p_ligand.sdf

> <i_m_source_file_index>
1

> <s_epik_input>
W2NIXTFbY0hdW2NIXW5bY0hdYzEtYyhbY0hdW2NIXVtjSF0yKVtjSF1jMltDSDJdW05IMitdW0NIM10=

> <s_epik_cmdline>
J2VwaWtfYXBwJywgJy1pbWFlJywgJ2xpZ2FuZF9wcm8ubWFlJywgJy1vbWFlJywgJ2xpZ2FuZF9wcmVwLm1hZScsICctbXMnLCAnMScsICctcGgnLCAnNycsICctcGh0JywgJzAuNScsICctbnQn

> <r_epik_Ionization_Penalty>
  0.0200

> <r_epik_Ionization_Penalty_Charging>
  0.0192

> <r_epik_Ionization_Penalty_Neutral>
  0.0009

> <r_epik_State_Penalty>
  0.0153

> <r_epik_Charging_Adjusted_Penalty>
0.0344689586830119

> <i_epik_Tot_Q>
1

> <i_epik_Tot_abs_Q>
1

$$$$
