4y2q_ligand
                    3D
 Schrodinger Suite 2020-3.
 29 30  0  0  1  0            999 V2000
  -16.8450  -11.4190   72.3960 C   0  0  0  0  0  0
  -17.1450  -12.3570   71.4340 C   0  0  0  0  0  0
  -16.7580  -10.1090   71.9750 C   0  0  0  0  0  0
  -17.3500  -11.9530   70.1290 C   0  0  0  0  0  0
  -17.2650  -10.6050   69.7830 C   0  0  0  0  0  0
  -18.8250  -10.3340   66.4660 C   0  0  0  0  0  0
  -16.8010   -8.9010   66.4800 C   0  0  0  0  0  0
  -18.8850  -10.2520   67.9870 C   0  0  0  0  0  0
  -16.8680   -8.9550   68.0140 C   0  0  0  0  0  0
  -17.6850  -13.0210   69.1390 C   0  0  0  0  0  0
  -16.9630   -9.6900   70.7150 N   0  0  0  0  0  0
  -18.0960   -9.1880   65.8510 N   0  3  0  0  0  0
  -17.4910  -10.2070   68.4170 N   0  0  0  0  0  0
  -17.2170  -14.2040   69.5560 F   0  0  0  0  0  0
  -19.0010  -13.2020   68.9220 F   0  0  0  0  0  0
  -17.2170  -12.8450   67.8820 F   0  0  0  0  0  0
  -16.6844  -11.6978   73.4374 H   0  0  0  0  0  0
  -17.2203  -13.4113   71.7002 H   0  0  0  0  0  0
  -16.5036   -9.3561   72.7210 H   0  0  0  0  0  0
  -18.3077  -11.2582   66.1688 H   0  0  0  0  0  0
  -19.8467  -10.3384   66.0584 H   0  0  0  0  0  0
  -16.4850   -7.8965   66.1619 H   0  0  0  0  0  0
  -16.0762   -9.6451   66.1182 H   0  0  0  0  0  0
  -19.4314   -9.3447   68.2840 H   0  0  0  0  0  0
  -19.4037  -11.1381   68.3818 H   0  0  0  0  0  0
  -15.8504   -8.8969   68.4277 H   0  0  0  0  0  0
  -17.4636   -8.1079   68.3851 H   0  0  0  0  0  0
  -17.9020   -9.4038   64.7900 H   0  0  0  0  0  0
  -18.7074   -8.2774   65.9341 H   0  0  0  0  0  0
  1  2  2  0  0  0
  1  3  1  0  0  0
  1 17  1  0  0  0
  2  4  1  0  0  0
  2 18  1  0  0  0
  3 11  2  0  0  0
  3 19  1  0  0  0
  4  5  2  0  0  0
  4 10  1  0  0  0
  5 11  1  0  0  0
  5 13  1  0  0  0
  6  8  1  0  0  0
  6 12  1  0  0  0
  6 20  1  0  0  0
  6 21  1  0  0  0
  7  9  1  0  0  0
  7 12  1  0  0  0
  7 22  1  0  0  0
  7 23  1  0  0  0
  8 13  1  0  0  0
  8 24  1  0  0  0
  8 25  1  0  0  0
  9 13  1  0  0  0
  9 26  1  0  0  0
  9 27  1  0  0  0
 10 14  1  0  0  0
 10 15  1  0  0  0
 10 16  1  0  0  0
 12 28  1  0  0  0
 12 29  1  0  0  0
M  CHG  1  12   1
M  END
> <s_m_source_file>
../4y2q_ligand.sdf

> <i_m_source_file_index>
1

> <s_epik_input>
RkMoRikoRiljMVtjSF1bY0hdW2NIXW5jMU4yW0NIMl1bQ0gyXVtOSDIrXVtDSDJdW0NIMl0y

> <s_epik_cmdline>
J2VwaWtfYXBwJywgJy1pbWFlJywgJ2xpZ2FuZF9wcm8ubWFlJywgJy1vbWFlJywgJ2xpZ2FuZF9wcmVwLm1hZScsICctbXMnLCAnMScsICctcGgnLCAnNycsICctcGh0JywgJzAuNScsICctbnQn

> <r_lp_tautomer_probability>
1

> <r_epik_Ionization_Penalty>
  0.0098

> <r_epik_Ionization_Penalty_Charging>
  0.0098

> <r_epik_Ionization_Penalty_Neutral>
  0.0000

> <r_epik_State_Penalty>
  0.0075

> <r_epik_Charging_Adjusted_Penalty>
0.0172710495743993

> <i_epik_Tot_Q>
1

> <i_epik_Tot_abs_Q>
1

$$$$
