4y2t_ligand
                    3D
 Schrodinger Suite 2020-3.
 36 37  0  0  1  0            999 V2000
  -11.0720   -5.0160   55.6690 C   0  0  0  0  0  0
  -12.0730   -5.9700   55.6690 C   0  0  0  0  0  0
  -10.6950   -4.4060   56.8480 C   0  0  0  0  0  0
  -12.6820   -6.3000   56.8590 C   0  0  0  0  0  0
  -11.2940   -4.7460   58.0410 C   0  0  0  0  0  0
  -17.4420   -6.5310   60.5770 C   0  0  0  0  0  0
  -16.1710   -4.9470   61.8840 C   0  0  0  0  0  0
  -16.3960   -6.5310   59.6780 C   0  0  0  0  0  0
  -15.1200   -4.9370   60.9870 C   0  0  0  0  0  0
  -17.3090   -5.7250   61.6810 C   0  0  0  0  0  0
  -12.2870   -5.7010   58.0420 C   0  0  0  0  0  0
  -15.2700   -5.7580   59.8900 C   0  0  0  0  0  0
  -18.4220   -5.7280   62.6400 C   0  0  0  0  0  0
  -12.9830   -6.0700   59.3090 C   0  0  0  0  0  0
  -17.9760   -6.6220   63.7730 C   0  0  0  0  0  0
  -18.1750   -8.0900   63.5230 C   0  0  0  0  0  0
  -17.8150   -8.6960   64.7660 O   0  0  0  0  0  0
  -14.3390   -5.8620   58.8920 O   0  0  0  0  0  0
  -10.5794   -4.7451   54.7352 H   0  0  0  0  0  0
  -12.3756   -6.4538   54.7403 H   0  0  0  0  0  0
   -9.9138   -3.6460   56.8351 H   0  0  0  0  0  0
  -13.4825   -7.0398   56.8692 H   0  0  0  0  0  0
  -10.9869   -4.2665   58.9705 H   0  0  0  0  0  0
  -18.3312   -7.1412   60.4189 H   0  0  0  0  0  0
  -16.1079   -4.3270   62.7782 H   0  0  0  0  0  0
  -16.4585   -7.1518   58.7842 H   0  0  0  0  0  0
  -14.2328   -4.3218   61.1367 H   0  0  0  0  0  0
  -18.6089   -4.7014   62.9880 H   0  0  0  0  0  0
  -19.3262   -6.1198   62.1512 H   0  0  0  0  0  0
  -12.7428   -7.1114   59.5694 H   0  0  0  0  0  0
  -12.6495   -5.4035   60.1181 H   0  0  0  0  0  0
  -16.9021   -6.4715   63.9578 H   0  0  0  0  0  0
  -18.5430   -6.3724   64.6820 H   0  0  0  0  0  0
  -19.2256   -8.2774   63.2563 H   0  0  0  0  0  0
  -17.5239   -8.4129   62.6973 H   0  0  0  0  0  0
  -17.8647   -9.7890   64.8798 H   0  0  0  0  0  0
  1  2  2  0  0  0
  1  3  1  0  0  0
  1 19  1  0  0  0
  2  4  1  0  0  0
  2 20  1  0  0  0
  3  5  2  0  0  0
  3 21  1  0  0  0
  4 11  2  0  0  0
  4 22  1  0  0  0
  5 11  1  0  0  0
  5 23  1  0  0  0
  6  8  2  0  0  0
  6 10  1  0  0  0
  6 24  1  0  0  0
  7  9  1  0  0  0
  7 10  2  0  0  0
  7 25  1  0  0  0
  8 12  1  0  0  0
  8 26  1  0  0  0
  9 12  2  0  0  0
  9 27  1  0  0  0
 10 13  1  0  0  0
 11 14  1  0  0  0
 12 18  1  0  0  0
 13 15  1  0  0  0
 13 28  1  0  0  0
 13 29  1  0  0  0
 14 18  1  0  0  0
 14 30  1  0  0  0
 14 31  1  0  0  0
 15 16  1  0  0  0
 15 32  1  0  0  0
 15 33  1  0  0  0
 16 17  1  0  0  0
 16 34  1  0  0  0
 16 35  1  0  0  0
 17 36  1  0  0  0
M  END
> <s_m_source_file>
../4y2t_ligand.sdf

> <i_m_source_file_index>
1

> <s_epik_input>
W2NIXTFbY0hdW2NIXVtjSF1bY0hdYzFbQ0gyXU9jKFtjSF1bY0hdMilbY0hdW2NIXWMyW0NIMl1bQ0gyXVtDSDJdW09IXQ==

> <s_epik_cmdline>
J2VwaWtfYXBwJywgJy1pbWFlJywgJ2xpZ2FuZF9wcm8ubWFlJywgJy1vbWFlJywgJ2xpZ2FuZF9wcmVwLm1hZScsICctbXMnLCAnMScsICctcGgnLCAnNycsICctcGh0JywgJzAuNScsICctbnQn

> <r_lp_tautomer_probability>
1

> <r_epik_Ionization_Penalty>
  0.0000

> <r_epik_Ionization_Penalty_Charging>
  0.0000

> <r_epik_Ionization_Penalty_Neutral>
  0.0000

> <r_epik_State_Penalty>
 -0.0000

> <r_epik_Charging_Adjusted_Penalty>
0

> <i_epik_Tot_Q>
0

> <i_epik_Tot_abs_Q>
0

$$$$
