4y2u_ligand
                    3D
 Schrodinger Suite 2020-3.
 38 39  0  0  1  0            999 V2000
  -16.1220  -13.3570   68.3650 C   0  0  0  0  0  0
  -17.3550  -13.7330   68.8330 C   0  0  0  0  0  0
  -15.9650  -12.0950   67.8440 C   0  0  0  0  0  0
  -18.4160  -12.8620   68.7750 C   0  0  0  0  0  0
  -17.0260  -11.2170   67.7760 C   0  0  0  0  0  0
  -18.2550  -11.6100   68.2450 C   0  0  0  0  0  0
  -17.3140   -8.3010   64.5450 C   0  0  0  0  0  0
  -16.8230   -9.8540   67.1850 C   0  0  0  0  0  0
  -19.2980  -10.1820   66.8490 C   0  0  0  0  0  0
  -18.1410   -9.2180   66.7780 C   0  0  2  0  0  0
  -18.0240   -5.3980   62.4510 C   0  0  0  0  0  0
  -15.8690   -6.4700   62.0500 C   0  0  0  0  0  0
  -17.8710   -7.7220   61.6610 C   0  0  0  0  0  0
  -17.2690   -6.6970   62.5790 C   0  0  0  0  0  0
  -19.3320  -10.7380   68.1810 N   0  0  0  0  0  0
  -18.2010   -8.3770   65.5900 N   0  0  0  0  0  0
  -16.6440   -9.2560   64.1930 O   0  0  0  0  0  0
  -17.2860   -7.0140   64.0080 O   0  0  0  0  0  0
  -15.2800  -14.0480   68.4056 H   0  0  0  0  0  0
  -17.4941  -14.7289   69.2536 H   0  0  0  0  0  0
  -14.9864  -11.7833   67.4788 H   0  0  0  0  0  0
  -19.3911  -13.1694   69.1530 H   0  0  0  0  0  0
  -16.3373   -9.2018   67.9258 H   0  0  0  0  0  0
  -16.1856   -9.9328   66.2920 H   0  0  0  0  0  0
  -20.2350   -9.6465   66.6361 H   0  0  0  0  0  0
  -19.1556  -10.9811   66.1066 H   0  0  0  0  0  0
  -18.2474   -8.4185   67.5259 H   0  0  0  0  0  0
  -18.0532   -5.0935   61.3944 H   0  0  0  0  0  0
  -17.5189   -4.6205   63.0429 H   0  0  0  0  0  0
  -19.0507   -5.5325   62.8223 H   0  0  0  0  0  0
  -15.9162   -6.2365   60.9761 H   0  0  0  0  0  0
  -15.2680   -7.3787   62.2016 H   0  0  0  0  0  0
  -15.4055   -5.6298   62.5879 H   0  0  0  0  0  0
  -17.7984   -7.3706   60.6212 H   0  0  0  0  0  0
  -18.9283   -7.8737   61.9238 H   0  0  0  0  0  0
  -17.3272   -8.6724   61.7657 H   0  0  0  0  0  0
  -20.1185  -10.4299   68.8857 H   0  0  0  0  0  0
  -19.0446   -7.6855   65.4477 H   0  0  0  0  0  0
  1  2  2  0  0  0
  1  3  1  0  0  0
  1 19  1  0  0  0
  2  4  1  0  0  0
  2 20  1  0  0  0
  3  5  2  0  0  0
  3 21  1  0  0  0
  4  6  2  0  0  0
  4 22  1  0  0  0
  5  6  1  0  0  0
  5  8  1  0  0  0
  6 15  1  0  0  0
  7 16  1  0  0  0
  7 17  2  0  0  0
  7 18  1  0  0  0
  8 10  1  0  0  0
  8 23  1  0  0  0
  8 24  1  0  0  0
  9 10  1  0  0  0
  9 15  1  0  0  0
  9 25  1  0  0  0
  9 26  1  0  0  0
 10 16  1  0  0  0
 10 27  1  0  0  0
 11 14  1  0  0  0
 11 28  1  0  0  0
 11 29  1  0  0  0
 11 30  1  0  0  0
 12 14  1  0  0  0
 12 31  1  0  0  0
 12 32  1  0  0  0
 12 33  1  0  0  0
 13 14  1  0  0  0
 13 34  1  0  0  0
 13 35  1  0  0  0
 13 36  1  0  0  0
 14 18  1  0  0  0
 15 37  1  0  0  0
 16 38  1  0  0  0
M  END
> <s_m_source_file>
../4y2u_ligand.sdf

> <i_m_source_file_index>
1

> <s_epik_input>
W2NIXTFbY0hdW2NIXVtjSF1jKGMxMilbTkhdW0NIMl1bQ0BASF0oW0NIMl0yKVtOSF1DKD1PKU9DKFtDSDNdKShbQ0gzXSlbQ0gzXQ==

> <s_epik_cmdline>
J2VwaWtfYXBwJywgJy1pbWFlJywgJ2xpZ2FuZF9wcm8ubWFlJywgJy1vbWFlJywgJ2xpZ2FuZF9wcmVwLm1hZScsICctbXMnLCAnMScsICctcGgnLCAnNycsICctcGh0JywgJzAuNScsICctbnQn

> <r_lp_tautomer_probability>
1

> <r_epik_Ionization_Penalty>
  0.0032

> <r_epik_Ionization_Penalty_Charging>
  0.0000

> <r_epik_Ionization_Penalty_Neutral>
  0.0032

> <r_epik_State_Penalty>
 -0.0000

> <r_epik_Charging_Adjusted_Penalty>
0

> <i_epik_Tot_Q>
0

> <i_epik_Tot_abs_Q>
0

> <s_epik_Chemistry_Notes>
This compound has an ester and may undergo hydrolysis at high or low pH.

$$$$
