4y2x_ligand
                    3D
 Schrodinger Suite 2020-3.
 49 52  0  0  1  0            999 V2000
  -18.6860   -5.2800   61.9900 C   0  0  0  0  0  0
  -18.4920   -6.1470   60.9380 C   0  0  0  0  0  0
  -18.1950   -5.5540   63.2380 C   0  0  0  0  0  0
  -17.8020   -7.3230   61.1330 C   0  0  0  0  0  0
  -17.4960   -6.7150   63.4490 C   0  0  0  0  0  0
  -17.3160   -7.5880   62.3910 C   0  0  0  0  0  0
  -17.8330  -11.8980   70.5770 C   0  0  0  0  0  0
  -15.7060  -11.9590   69.3480 C   0  0  0  0  0  0
  -17.5980  -13.4800   68.7220 C   0  0  0  0  0  0
  -17.1900   -9.9940   69.0360 C   0  0  0  0  0  0
  -19.0080  -11.4820   68.4100 C   0  0  0  0  0  0
  -16.8970  -11.6710   67.1670 C   0  0  0  0  0  0
  -16.6930  -11.0400   70.0400 C   0  0  1  0  0  0
  -18.5590  -12.5450   69.4110 C   0  0  2  0  0  0
  -16.4090  -12.6830   68.1960 C   0  0  1  0  0  0
  -17.8300  -10.7010   67.8490 C   0  0  0  0  0  0
  -16.9670   -7.0160   64.8110 C   0  0  0  0  0  0
  -18.2940   -9.7360   66.7860 C   0  0  0  0  0  0
  -17.4540   -8.4850   66.5790 C   0  0  0  0  0  0
  -17.5060   -8.3060   65.1520 N   0  3  0  0  0  0
  -16.6170   -8.7630   62.5840 O   0  0  0  0  0  0
  -19.2418   -4.3569   61.8256 H   0  0  0  0  0  0
  -18.8845   -5.9027   59.9509 H   0  0  0  0  0  0
  -18.3583   -4.8547   64.0580 H   0  0  0  0  0  0
  -17.6458   -8.0237   60.3128 H   0  0  0  0  0  0
  -17.4255  -12.6773   71.2378 H   0  0  0  0  0  0
  -18.5323  -11.2657   71.1436 H   0  0  0  0  0  0
  -14.8678  -11.3661   68.9530 H   0  0  0  0  0  0
  -15.3251  -12.6975   70.0688 H   0  0  0  0  0  0
  -17.2460  -14.2371   69.4382 H   0  0  0  0  0  0
  -18.1077  -13.9774   67.8837 H   0  0  0  0  0  0
  -17.9324   -9.3435   69.5215 H   0  0  0  0  0  0
  -16.3412   -9.3864   68.6891 H   0  0  0  0  0  0
  -19.5322  -11.9653   67.5724 H   0  0  0  0  0  0
  -19.6866  -10.7734   68.9073 H   0  0  0  0  0  0
  -16.0359  -11.1299   66.7479 H   0  0  0  0  0  0
  -17.4283  -12.1962   66.3596 H   0  0  0  0  0  0
  -16.2216  -10.5098   70.8806 H   0  0  0  0  0  0
  -19.4366  -13.0944   69.7825 H   0  0  0  0  0  0
  -15.6950  -13.3714   67.7202 H   0  0  0  0  0  0
  -15.8675   -7.0334   64.7817 H   0  0  0  0  0  0
  -17.3028   -6.2400   65.5146 H   0  0  0  0  0  0
  -18.3128  -10.2455   65.8113 H   0  0  0  0  0  0
  -19.3045   -9.3776   67.0319 H   0  0  0  0  0  0
  -17.9034   -7.6462   67.1307 H   0  0  0  0  0  0
  -16.4337   -8.6629   66.9496 H   0  0  0  0  0  0
  -18.5503   -8.3685   64.8122 H   0  0  0  0  0  0
  -16.9133   -9.0923   64.6617 H   0  0  0  0  0  0
  -16.4713   -9.4603   61.7458 H   0  0  0  0  0  0
  1  2  2  0  0  0
  1  3  1  0  0  0
  1 22  1  0  0  0
  2  4  1  0  0  0
  2 23  1  0  0  0
  3  5  2  0  0  0
  3 24  1  0  0  0
  4  6  2  0  0  0
  4 25  1  0  0  0
  5  6  1  0  0  0
  5 17  1  0  0  0
  6 21  1  0  0  0
  7 13  1  0  0  0
  7 14  1  0  0  0
  7 26  1  0  0  0
  7 27  1  0  0  0
  8 13  1  0  0  0
  8 15  1  0  0  0
  8 28  1  0  0  0
  8 29  1  0  0  0
  9 14  1  0  0  0
  9 15  1  0  0  0
  9 30  1  0  0  0
  9 31  1  0  0  0
 10 13  1  0  0  0
 10 16  1  0  0  0
 10 32  1  0  0  0
 10 33  1  0  0  0
 11 14  1  0  0  0
 11 16  1  0  0  0
 11 34  1  0  0  0
 11 35  1  0  0  0
 12 15  1  0  0  0
 12 16  1  0  0  0
 12 36  1  0  0  0
 12 37  1  0  0  0
 13 38  1  0  0  0
 14 39  1  0  0  0
 15 40  1  0  0  0
 16 18  1  0  0  0
 17 20  1  0  0  0
 17 41  1  0  0  0
 17 42  1  0  0  0
 18 19  1  0  0  0
 18 43  1  0  0  0
 18 44  1  0  0  0
 19 20  1  0  0  0
 19 45  1  0  0  0
 19 46  1  0  0  0
 20 47  1  0  0  0
 20 48  1  0  0  0
 21 49  1  0  0  0
M  CHG  1  20   1
M  END
> <s_m_source_file>
../4y2x_ligand.sdf

> <i_m_source_file_index>
1

> <s_epik_input>
W09IXWMxW2NIXVtjSF1bY0hdW2NIXWMxW0NIMl1bTkgyK11bQ0gyXVtDSDJdQzIzW0NIMl1bQ0BIXTRbQ0gyXVtDQEBIXShbQ0gyXTIpW0NIMl1bQ0BIXShbQ0gyXTQpW0NIMl0z

> <s_epik_cmdline>
J2VwaWtfYXBwJywgJy1pbWFlJywgJ2xpZ2FuZF9wcm8ubWFlJywgJy1vbWFlJywgJ2xpZ2FuZF9wcmVwLm1hZScsICctbXMnLCAnMScsICctcGgnLCAnNycsICctcGh0JywgJzAuNScsICctbnQn

> <r_lp_tautomer_probability>
0.999999999997365

> <r_epik_Ionization_Penalty>
  0.0172

> <r_epik_Ionization_Penalty_Charging>
  0.0050

> <r_epik_Ionization_Penalty_Neutral>
  0.0122

> <r_epik_State_Penalty>
  0.0094

> <r_epik_Charging_Adjusted_Penalty>
0.0144152040128499

> <i_epik_Tot_Q>
1

> <i_epik_Tot_abs_Q>
1

$$$$
