4y2y_ligand
                    3D
 Schrodinger Suite 2020-3.
 34 35  0  0  1  0            999 V2000
  -17.2030  -13.4440   68.5860 C   0  0  0  0  0  0
  -17.1350  -13.0410   69.9040 C   0  0  0  0  0  0
  -17.7260  -12.6300   67.6080 C   0  0  0  0  0  0
  -17.5980  -11.8020   70.2790 C   0  0  0  0  0  0
  -16.5140   -6.9280   61.4350 C   0  0  0  0  0  0
  -16.2420   -7.4590   62.7050 C   0  0  0  0  0  0
  -18.1980  -11.3830   67.9590 C   0  0  0  0  0  0
  -18.1300  -10.9950   69.2890 C   0  0  0  0  0  0
  -17.6850   -6.2200   61.4240 C   0  0  0  0  0  0
  -17.1950   -7.1810   63.6630 C   0  0  0  0  0  0
  -18.3020   -5.5330   60.2950 C   0  0  0  0  0  0
  -18.7720  -10.4720   66.9230 C   0  0  0  0  0  0
  -17.2210   -7.5790   65.0860 C   0  0  0  0  0  0
  -17.8160   -9.3240   66.6390 C   0  0  0  0  0  0
  -17.9230   -8.8420   65.2650 N   0  3  0  0  0  0
  -18.5850   -9.7820   69.6470 F   0  0  0  0  0  0
  -18.4310   -6.2060   62.9730 S   0  0  0  0  0  0
  -16.8330  -14.4322   68.3129 H   0  0  0  0  0  0
  -16.7112  -13.7098   70.6531 H   0  0  0  0  0  0
  -17.7666  -12.9657   66.5718 H   0  0  0  0  0  0
  -17.5479  -11.4685   71.3155 H   0  0  0  0  0  0
  -15.8718   -7.0628   60.5646 H   0  0  0  0  0  0
  -15.3480   -8.0451   62.9179 H   0  0  0  0  0  0
  -17.6739   -5.6597   59.4009 H   0  0  0  0  0  0
  -18.3991   -4.4619   60.5261 H   0  0  0  0  0  0
  -19.2984   -5.9592   60.1065 H   0  0  0  0  0  0
  -18.9422  -11.0350   65.9934 H   0  0  0  0  0  0
  -19.7270  -10.0622   67.2836 H   0  0  0  0  0  0
  -16.1906   -7.6944   65.4533 H   0  0  0  0  0  0
  -17.7353   -6.8046   65.6740 H   0  0  0  0  0  0
  -18.0406   -8.4845   67.3133 H   0  0  0  0  0  0
  -16.7813   -9.6593   66.8031 H   0  0  0  0  0  0
  -18.9881   -8.7066   65.0257 H   0  0  0  0  0  0
  -17.4903   -9.6001   64.5956 H   0  0  0  0  0  0
  1  2  2  0  0  0
  1  3  1  0  0  0
  1 18  1  0  0  0
  2  4  1  0  0  0
  2 19  1  0  0  0
  3  7  2  0  0  0
  3 20  1  0  0  0
  4  8  2  0  0  0
  4 21  1  0  0  0
  5  6  1  0  0  0
  5  9  2  0  0  0
  5 22  1  0  0  0
  6 10  2  0  0  0
  6 23  1  0  0  0
  7  8  1  0  0  0
  7 12  1  0  0  0
  8 16  1  0  0  0
  9 11  1  0  0  0
  9 17  1  0  0  0
 10 13  1  0  0  0
 10 17  1  0  0  0
 11 24  1  0  0  0
 11 25  1  0  0  0
 11 26  1  0  0  0
 12 14  1  0  0  0
 12 27  1  0  0  0
 12 28  1  0  0  0
 13 15  1  0  0  0
 13 29  1  0  0  0
 13 30  1  0  0  0
 14 15  1  0  0  0
 14 31  1  0  0  0
 14 32  1  0  0  0
 15 33  1  0  0  0
 15 34  1  0  0  0
M  CHG  1  15   1
M  END
> <s_m_source_file>
../4y2y_ligand.sdf

> <i_m_source_file_index>
1

> <s_epik_input>
RmMxW2NIXVtjSF1bY0hdW2NIXWMxW0NIMl1bQ0gyXVtOSDIrXVtDSDJdYyhzMilbY0hdW2NIXWMyW0NIM10=

> <s_epik_cmdline>
J2VwaWtfYXBwJywgJy1pbWFlJywgJ2xpZ2FuZF9wcm8ubWFlJywgJy1vbWFlJywgJ2xpZ2FuZF9wcmVwLm1hZScsICctbXMnLCAnMScsICctcGgnLCAnNycsICctcGh0JywgJzAuNScsICctbnQn

> <r_epik_Ionization_Penalty>
  0.0157

> <r_epik_Ionization_Penalty_Charging>
  0.0157

> <r_epik_Ionization_Penalty_Neutral>
  0.0000

> <r_epik_State_Penalty>
  0.0124

> <r_epik_Charging_Adjusted_Penalty>
0.0280924997152475

> <i_epik_Tot_Q>
1

> <i_epik_Tot_abs_Q>
1

$$$$
