4y32_ligand
                    3D
 Schrodinger Suite 2020-3.
116117  0  0  1  0            999 V2000
   23.7170    5.1350   14.9800 N   0  3  0  0  0  0
   23.4650    5.7100   16.3310 C   0  0  2  0  0  0
   22.6160    6.9830   16.2930 C   0  0  0  0  0  0
   21.6750    7.0760   17.0730 O   0  0  0  0  0  0
   24.7610    5.9920   17.0940 C   0  0  0  0  0  0
   24.5100    6.5530   18.4900 C   0  0  0  0  0  0
   24.3640    5.4110   19.4790 C   0  0  0  0  0  0
   23.1830    5.5490   20.3220 N   0  0  0  0  0  0
   22.0240    4.9270   20.1070 C   0  0  0  0  0  0
   21.0040    5.1220   20.9400 N   0  3  0  0  0  0
   21.8810    4.1120   19.0640 N   0  0  0  0  0  0
   22.9520    7.9650   15.4340 N   0  0  0  0  0  0
   22.1770    9.2100   15.3910 C   0  0  2  0  0  0
   20.7890    8.9320   14.7470 C   0  0  0  0  0  0
   20.6890    8.3550   13.6680 O   0  0  0  0  0  0
   22.8450   10.2920   14.5010 C   0  0  2  0  0  0
   24.2210   10.5070   14.8720 O   0  0  0  0  0  0
   22.0560   11.5990   14.5630 C   0  0  0  0  0  0
   19.7120    9.3970   15.3910 N   0  0  0  0  0  0
   18.4100    9.1990   14.7670 C   0  0  2  0  0  0
   18.0570    9.9770   13.4680 C   0  0  0  0  0  0
   18.3250   11.2060   13.2760 O   0  0  0  0  0  0
   17.4110    9.5220   15.9030 C   0  0  0  0  0  0
   18.1720   10.3100   16.9400 C   0  0  0  0  0  0
   19.6570   10.0290   16.7200 C   0  0  0  0  0  0
   17.3760    9.2790   12.5580 N   0  0  0  0  0  0
   16.9160    9.8830   11.3050 C   0  0  1  0  0  0
   17.0850    8.8660   10.1710 C   0  0  0  0  0  0
   16.3240    7.6810   10.5300 O   0  0  0  0  0  0
   15.4720   10.2920   11.4230 C   0  0  0  0  0  0
   14.8670   10.1930   12.5270 O   0  0  0  0  0  0
   16.5740    6.4000    9.5990 P   0  0  0  0  0  0
   16.2340    6.7710    8.2010 O   0  0  0  0  0  0
   15.5360    5.4390   10.2150 O   0  5  0  0  0  0
   18.0110    6.0290    9.7470 O   0  5  0  0  0  0
   14.8900   10.8110   10.3590 N   0  0  0  0  0  0
   13.4740   11.2930   10.4040 C   0  0  2  0  0  0
   12.4980   10.1220   10.7370 C   0  0  0  0  0  0
   12.5120    9.0870   10.1100 O   0  0  0  0  0  0
   13.1460   11.8520    9.0140 C   0  0  0  0  0  0
   11.7450   12.4950    8.9390 C   0  0  0  0  0  0
   11.7170   13.8580    9.6360 C   0  0  0  0  0  0
   11.4100   12.7220    7.4590 C   0  0  0  0  0  0
   11.7240   10.2860   11.7990 N   0  0  0  0  0  0
   10.7890    9.1620   12.1620 C   0  0  2  0  0  0
    9.4830    9.0910   11.3780 C   0  0  0  0  0  0
    8.7680    8.0410   11.4090 O   0  0  0  0  0  0
   10.5730    9.4130   13.6470 C   0  0  0  0  0  0
   10.7210   10.9170   13.8070 C   0  0  0  0  0  0
   11.7160   11.4020   12.7680 C   0  0  0  0  0  0
    9.1690   10.1300   10.6400 N   0  0  0  0  0  0
    7.9980   10.2140    9.8420 C   0  0  2  0  0  0
    8.4330    9.9370    8.3880 C   0  0  0  0  0  0
    9.6270    9.7700    8.0930 O   0  5  0  0  0  0
    7.4320   11.6380    9.9590 C   0  0  2  0  0  0
    8.4920   12.5500    9.6750 O   0  0  0  0  0  0
    6.9500   11.9300   11.4390 C   0  0  0  0  0  0
    7.6030    9.8720    7.4680 O   0  0  0  0  0  0
   22.7573    4.9513   14.4749 H   0  0  0  0  0  0
   24.2653    4.1868   15.0815 H   0  0  0  0  0  0
   24.3145    5.8423   14.3861 H   0  0  0  0  0  0
   22.8983    4.9155   16.8385 H   0  0  0  0  0  0
   25.3328    5.0586   17.2031 H   0  0  0  0  0  0
   25.3615    6.7269   16.5378 H   0  0  0  0  0  0
   25.3573    7.1882   18.7877 H   0  0  0  0  0  0
   23.5872    7.1517   18.4841 H   0  0  0  0  0  0
   24.2797    4.4605   18.9317 H   0  0  0  0  0  0
   25.2462    5.3792   20.1353 H   0  0  0  0  0  0
   23.2117    6.2029   21.2060 H   0  0  0  0  0  0
   21.1192    5.7948   21.8026 H   0  0  0  0  0  0
   22.7220    3.9490   18.3740 H   0  0  0  0  0  0
   20.9218    3.6017   18.8922 H   0  0  0  0  0  0
   23.8127    7.8294   14.7625 H   0  0  0  0  0  0
   22.1381    9.5218   16.4452 H   0  0  0  0  0  0
   22.9088    9.9454   13.4590 H   0  0  0  0  0  0
   24.9270    9.6635   14.8791 H   0  0  0  0  0  0
   21.0109   11.4103   14.2763 H   0  0  0  0  0  0
   22.5003   12.3287   13.8701 H   0  0  0  0  0  0
   22.0888   11.9989   15.5872 H   0  0  0  0  0  0
   18.4499    8.1630   14.3993 H   0  0  0  0  0  0
   16.5751   10.1122   15.4993 H   0  0  0  0  0  0
   17.0254    8.5844   16.3298 H   0  0  0  0  0  0
   17.9583   11.3819   16.8157 H   0  0  0  0  0  0
   17.8620    9.9885   17.9452 H   0  0  0  0  0  0
   20.0619    9.3363   17.4724 H   0  0  0  0  0  0
   20.2551   10.9522   16.7121 H   0  0  0  0  0  0
   17.1619    8.2210   12.7697 H   0  0  0  0  0  0
   17.5219   10.7840   11.1288 H   0  0  0  0  0  0
   16.7056    9.2968    9.2326 H   0  0  0  0  0  0
   18.1506    8.6184   10.0563 H   0  0  0  0  0  0
   15.4671   10.8858    9.4255 H   0  0  0  0  0  0
   13.3949   12.0660   11.1826 H   0  0  0  0  0  0
   13.8829   12.6234    8.7458 H   0  0  0  0  0  0
   13.1808   11.0387    8.2741 H   0  0  0  0  0  0
   11.0193   11.8329    9.4340 H   0  0  0  0  0  0
   11.9540   13.7294   10.7024 H   0  0  0  0  0  0
   10.7156   14.3016    9.5338 H   0  0  0  0  0  0
   12.4613   14.5222    9.1725 H   0  0  0  0  0  0
   11.4220   11.7585    6.9284 H   0  0  0  0  0  0
   12.1568   13.3954    7.0131 H   0  0  0  0  0  0
   10.4111   13.1748    7.3745 H   0  0  0  0  0  0
   11.2284    8.1858   11.9090 H   0  0  0  0  0  0
    9.5692    9.0675   13.9350 H   0  0  0  0  0  0
   11.3300    8.8633   14.2257 H   0  0  0  0  0  0
    9.7447   11.3999   13.6533 H   0  0  0  0  0  0
   11.0870   11.1438   14.8192 H   0  0  0  0  0  0
   12.7284   11.5414   13.1750 H   0  0  0  0  0  0
   11.3939   12.3243   12.2624 H   0  0  0  0  0  0
    9.8791   10.9697   10.6648 H   0  0  0  0  0  0
    7.2748    9.4748   10.2168 H   0  0  0  0  0  0
    6.6395   11.7904    9.2115 H   0  0  0  0  0  0
    8.9861   12.5303    8.6924 H   0  0  0  0  0  0
    6.1295   11.2452   11.6992 H   0  0  0  0  0  0
    6.5971   12.9693   11.5113 H   0  0  0  0  0  0
    7.7887   11.7783   12.1344 H   0  0  0  0  0  0
   20.0460    4.6103   20.7657 H   0  0  0  0  0  0
  1  2  1  0  0  0
  1 59  1  0  0  0
  1 60  1  0  0  0
  1 61  1  0  0  0
  2  3  1  0  0  0
  2  5  1  0  0  0
  2 62  1  0  0  0
  3  4  2  0  0  0
  3 12  1  0  0  0
  5  6  1  0  0  0
  5 63  1  0  0  0
  5 64  1  0  0  0
  6  7  1  0  0  0
  6 65  1  0  0  0
  6 66  1  0  0  0
  7  8  1  0  0  0
  7 67  1  0  0  0
  7 68  1  0  0  0
  8  9  1  0  0  0
  8 69  1  0  0  0
  9 10  2  0  0  0
  9 11  1  0  0  0
 10 70  1  0  0  0
 10116  1  0  0  0
 11 71  1  0  0  0
 11 72  1  0  0  0
 12 13  1  0  0  0
 12 73  1  0  0  0
 13 14  1  0  0  0
 13 16  1  0  0  0
 13 74  1  0  0  0
 14 15  2  0  0  0
 14 19  1  0  0  0
 16 17  1  0  0  0
 16 18  1  0  0  0
 16 75  1  0  0  0
 17 76  1  0  0  0
 18 77  1  0  0  0
 18 78  1  0  0  0
 18 79  1  0  0  0
 19 20  1  0  0  0
 19 25  1  0  0  0
 20 21  1  0  0  0
 20 23  1  0  0  0
 20 80  1  0  0  0
 21 22  2  0  0  0
 21 26  1  0  0  0
 23 24  1  0  0  0
 23 81  1  0  0  0
 23 82  1  0  0  0
 24 25  1  0  0  0
 24 83  1  0  0  0
 24 84  1  0  0  0
 25 85  1  0  0  0
 25 86  1  0  0  0
 26 27  1  0  0  0
 26 87  1  0  0  0
 27 28  1  0  0  0
 27 30  1  0  0  0
 27 88  1  0  0  0
 28 29  1  0  0  0
 28 89  1  0  0  0
 28 90  1  0  0  0
 29 32  1  0  0  0
 30 31  2  0  0  0
 30 36  1  0  0  0
 32 33  2  0  0  0
 32 34  1  0  0  0
 32 35  1  0  0  0
 36 37  1  0  0  0
 36 91  1  0  0  0
 37 38  1  0  0  0
 37 40  1  0  0  0
 37 92  1  0  0  0
 38 39  2  0  0  0
 38 44  1  0  0  0
 40 41  1  0  0  0
 40 93  1  0  0  0
 40 94  1  0  0  0
 41 42  1  0  0  0
 41 43  1  0  0  0
 41 95  1  0  0  0
 42 96  1  0  0  0
 42 97  1  0  0  0
 42 98  1  0  0  0
 43 99  1  0  0  0
 43100  1  0  0  0
 43101  1  0  0  0
 44 45  1  0  0  0
 44 50  1  0  0  0
 45 46  1  0  0  0
 45 48  1  0  0  0
 45102  1  0  0  0
 46 47  2  0  0  0
 46 51  1  0  0  0
 48 49  1  0  0  0
 48103  1  0  0  0
 48104  1  0  0  0
 49 50  1  0  0  0
 49105  1  0  0  0
 49106  1  0  0  0
 50107  1  0  0  0
 50108  1  0  0  0
 51 52  1  0  0  0
 51109  1  0  0  0
 52 53  1  0  0  0
 52 55  1  0  0  0
 52110  1  0  0  0
 53 54  1  0  0  0
 53 58  2  0  0  0
 55 56  1  0  0  0
 55 57  1  0  0  0
 55111  1  0  0  0
 56112  1  0  0  0
 57113  1  0  0  0
 57114  1  0  0  0
 57115  1  0  0  0
M  CHG  5   1   1  10   1  34  -1  35  -1  54  -1
M  END
> <s_m_source_file>
../4y32_ligand.sdf

> <i_m_source_file_index>
1

> <s_epik_input>
W0hdL049QyhbTkgyXSlcW05IXVtDSDJdW0NIMl1bQ0gyXVtDQEhdKFtOSDMrXSlDKD1PKVtOSF1bQ0BASF0oW0NASF0oW09IXSlbQ0gzXSlDKD1PKU4xW0NAQEhdKFtDSDJdW0NIMl1bQ0gyXTEpQyg9TylbTkhdW0NAQEhdKFtDSDJdT1AoPU8pKFtPSF0pW09IXSlDKD1PKVtOSF1bQ0BASF0oW0NIMl1bQ0hdKFtDSDNdKVtDSDNdKUMoPU8pTjJbQ0BASF0oW0NIMl1bQ0gyXVtDSDJdMilDKD1PKVtOSF1bQ0BIXShDKD1PKVtPSF0pW0NASF0oW09IXSlbQ0gzXQ==

> <s_epik_cmdline>
J2VwaWtfYXBwJywgJy1pbWFlJywgJ2xpZ2FuZF9wcm8ubWFlJywgJy1vbWFlJywgJ2xpZ2FuZF9wcmVwLm1hZScsICctbXMnLCAnMScsICctcGgnLCAnNycsICctcGh0JywgJzAuNScsICctbnQn

> <r_epik_Ionization_Penalty>
  0.2249

> <r_epik_Ionization_Penalty_Charging>
  0.2249

> <r_epik_Ionization_Penalty_Neutral>
  0.0000

> <r_epik_State_Penalty>
  0.1904

> <r_epik_Charging_Adjusted_Penalty>
0.415291238003221

> <i_epik_Tot_Q>
-1

> <i_epik_Tot_abs_Q>
5

> <s_epik_Chemistry_Notes>
This compound has an imine and may undergo hydrolysis.

$$$$
