4y3b_ligand
                    3D
 Schrodinger Suite 2020-3.
116117  0  0  1  0            999 V2000
   23.6400    5.3400   14.8000 N   0  3  0  0  0  0
   23.0890    5.5690   16.1290 C   0  0  2  0  0  0
   22.3880    6.9240   16.2120 C   0  0  0  0  0  0
   21.4250    7.0700   16.9640 O   0  0  0  0  0  0
   24.1860    5.4680   17.1950 C   0  0  0  0  0  0
   23.6830    5.6680   18.6160 C   0  0  0  0  0  0
   24.7820    5.4620   19.6460 C   0  0  0  0  0  0
   24.2860    5.6290   21.0100 N   0  0  0  0  0  0
   24.9820    5.3260   22.1020 C   0  0  0  0  0  0
   24.4500    5.5120   23.3040 N   0  0  0  0  0  0
   26.2100    4.8350   21.9930 N   0  3  0  0  0  0
   22.8740    7.9160   15.4610 N   0  0  0  0  0  0
   22.1580    9.1900   15.3510 C   0  0  2  0  0  0
   20.8000    8.9550   14.6960 C   0  0  0  0  0  0
   20.7320    8.3570   13.6250 O   0  0  0  0  0  0
   22.9130   10.2350   14.5020 C   0  0  2  0  0  0
   24.2150   10.4780   15.0470 O   0  0  0  0  0  0
   22.1260   11.5390   14.4700 C   0  0  0  0  0  0
   19.7150    9.4260   15.3270 N   0  0  0  0  0  0
   18.3810    9.1830   14.7610 C   0  0  2  0  0  0
   18.0510    9.9600   13.4760 C   0  0  0  0  0  0
   18.3520   11.1500   13.3280 O   0  0  0  0  0  0
   17.4360    9.6000   15.8990 C   0  0  0  0  0  0
   18.2350   10.5040   16.7700 C   0  0  0  0  0  0
   19.6560   10.0340   16.6680 C   0  0  0  0  0  0
   17.3920    9.2700   12.5530 N   0  0  0  0  0  0
   16.9340    9.8750   11.3080 C   0  0  1  0  0  0
   17.0600    8.8540   10.1760 C   0  0  0  0  0  0
   16.3180    7.7010   10.5430 O   0  0  0  0  0  0
   15.4750   10.3050   11.4580 C   0  0  0  0  0  0
   14.8820   10.1800   12.5370 O   0  0  0  0  0  0
   16.5680    6.4210    9.6030 P   0  0  0  0  0  0
   16.1920    6.7710    8.0920 O   0  5  0  0  0  0
   15.5210    5.3520   10.1910 O   0  5  0  0  0  0
   18.0930    5.9770    9.7350 O   0  0  0  0  0  0
   14.8930   10.8060   10.3770 N   0  0  0  0  0  0
   13.4900   11.2410   10.3860 C   0  0  2  0  0  0
   12.5410   10.0780   10.7400 C   0  0  0  0  0  0
   12.5520    9.0390   10.0840 O   0  0  0  0  0  0
   13.1300   11.8330    9.0170 C   0  0  0  0  0  0
   11.7910   12.5610    8.8740 C   0  0  0  0  0  0
   11.7950   13.8860    9.6290 C   0  0  0  0  0  0
   11.4700   12.7950    7.3990 C   0  0  0  0  0  0
   11.7370   10.2400   11.8040 N   0  0  0  0  0  0
   10.8560    9.1360   12.2390 C   0  0  2  0  0  0
    9.5700    9.0640   11.4430 C   0  0  0  0  0  0
    8.8530    8.0580   11.4340 O   0  0  0  0  0  0
   10.5790    9.4710   13.7040 C   0  0  0  0  0  0
   10.6750   10.9700   13.7690 C   0  0  0  0  0  0
   11.7100   11.3810   12.7370 C   0  0  0  0  0  0
    9.2780   10.1640   10.7810 N   0  0  0  0  0  0
    8.2110   10.2250    9.8390 C   0  0  2  0  0  0
    8.8630    9.9510    8.4880 C   0  0  0  0  0  0
   10.0810    9.9490    8.3470 O   0  0  0  0  0  0
    7.5030   11.5850    9.8740 C   0  0  2  0  0  0
    8.4630   12.6110    9.6300 O   0  0  0  0  0  0
    6.9030   11.8270   11.2510 C   0  0  0  0  0  0
    8.1970    9.7210    7.4840 O   0  5  0  0  0  0
   22.8372    5.4170   14.0520 H   0  0  0  0  0  0
   24.0868    4.3358   14.7564 H   0  0  0  0  0  0
   24.4121    6.0943   14.5882 H   0  0  0  0  0  0
   22.3487    4.7677   16.2697 H   0  0  0  0  0  0
   24.6497    4.4715   17.1506 H   0  0  0  0  0  0
   24.9504    6.2368   17.0086 H   0  0  0  0  0  0
   23.2966    6.6919   18.7275 H   0  0  0  0  0  0
   22.8783    4.9477   18.8249 H   0  0  0  0  0  0
   25.1894    4.4448   19.5490 H   0  0  0  0  0  0
   25.5841    6.1958   19.4781 H   0  0  0  0  0  0
   23.2758    6.0286   21.1828 H   0  0  0  0  0  0
   23.4323    5.9188   23.3981 H   0  0  0  0  0  0
   25.0269    5.2593   24.2059 H   0  0  0  0  0  0
   26.6539    4.6796   20.9986 H   0  0  0  0  0  0
   23.8216    7.7693   14.9220 H   0  0  0  0  0  0
   22.0736    9.5364   16.3916 H   0  0  0  0  0  0
   23.0924    9.8597   13.4837 H   0  0  0  0  0  0
   24.9316    9.6498   15.1497 H   0  0  0  0  0  0
   21.1258   11.3534   14.0515 H   0  0  0  0  0  0
   22.6556   12.2716   13.8432 H   0  0  0  0  0  0
   22.0284   11.9335   15.4922 H   0  0  0  0  0  0
   18.3377    8.1278   14.4533 H   0  0  0  0  0  0
   16.5615   10.1179   15.4782 H   0  0  0  0  0  0
   17.1041    8.7055   16.4464 H   0  0  0  0  0  0
   18.1341   11.5399   16.4139 H   0  0  0  0  0  0
   17.8683   10.4347   17.8048 H   0  0  0  0  0  0
   19.9038    9.2759   17.4255 H   0  0  0  0  0  0
   20.3782   10.8616   16.7275 H   0  0  0  0  0  0
   17.1944    8.2065   12.7530 H   0  0  0  0  0  0
   17.5735   10.7491   11.1158 H   0  0  0  0  0  0
   16.6585    9.2851    9.2470 H   0  0  0  0  0  0
   18.1193    8.5949   10.0321 H   0  0  0  0  0  0
   15.4896   10.8918    9.4568 H   0  0  0  0  0  0
   13.4181   12.0102   11.1690 H   0  0  0  0  0  0
   13.8889   12.5747    8.7272 H   0  0  0  0  0  0
   13.0978   11.0291    8.2669 H   0  0  0  0  0  0
   11.0092   11.9253    9.3154 H   0  0  0  0  0  0
   12.0272   13.7035   10.6886 H   0  0  0  0  0  0
   10.8048   14.3579    9.5466 H   0  0  0  0  0  0
   12.5559   14.5522    9.1963 H   0  0  0  0  0  0
   11.4703   11.8325    6.8665 H   0  0  0  0  0  0
   12.2298   13.4577    6.9591 H   0  0  0  0  0  0
   10.4787   13.2634    7.3093 H   0  0  0  0  0  0
   11.3414    8.1630   12.0725 H   0  0  0  0  0  0
    9.5768    9.1108   13.9793 H   0  0  0  0  0  0
   11.3317    8.9828   14.3405 H   0  0  0  0  0  0
    9.6938   11.4106   13.5386 H   0  0  0  0  0  0
   10.9853   11.2741   14.7796 H   0  0  0  0  0  0
   12.7087   11.5184   13.1772 H   0  0  0  0  0  0
   11.4204   12.2924   12.1934 H   0  0  0  0  0  0
    9.8910   11.0562   10.9762 H   0  0  0  0  0  0
    7.4634    9.4670   10.1156 H   0  0  0  0  0  0
    6.7374   11.6509    9.0869 H   0  0  0  0  0  0
    9.0218   12.6273    8.6827 H   0  0  0  0  0  0
    6.1565   11.0486   11.4676 H   0  0  0  0  0  0
    6.4194   12.8148   11.2718 H   0  0  0  0  0  0
    7.6993   11.7926   12.0091 H   0  0  0  0  0  0
   26.7840    4.5834   22.8970 H   0  0  0  0  0  0
  1  2  1  0  0  0
  1 59  1  0  0  0
  1 60  1  0  0  0
  1 61  1  0  0  0
  2  3  1  0  0  0
  2  5  1  0  0  0
  2 62  1  0  0  0
  3  4  2  0  0  0
  3 12  1  0  0  0
  5  6  1  0  0  0
  5 63  1  0  0  0
  5 64  1  0  0  0
  6  7  1  0  0  0
  6 65  1  0  0  0
  6 66  1  0  0  0
  7  8  1  0  0  0
  7 67  1  0  0  0
  7 68  1  0  0  0
  8  9  1  0  0  0
  8 69  1  0  0  0
  9 10  1  0  0  0
  9 11  2  0  0  0
 10 70  1  0  0  0
 10 71  1  0  0  0
 11 72  1  0  0  0
 11116  1  0  0  0
 12 13  1  0  0  0
 12 73  1  0  0  0
 13 14  1  0  0  0
 13 16  1  0  0  0
 13 74  1  0  0  0
 14 15  2  0  0  0
 14 19  1  0  0  0
 16 17  1  0  0  0
 16 18  1  0  0  0
 16 75  1  0  0  0
 17 76  1  0  0  0
 18 77  1  0  0  0
 18 78  1  0  0  0
 18 79  1  0  0  0
 19 20  1  0  0  0
 19 25  1  0  0  0
 20 21  1  0  0  0
 20 23  1  0  0  0
 20 80  1  0  0  0
 21 22  2  0  0  0
 21 26  1  0  0  0
 23 24  1  0  0  0
 23 81  1  0  0  0
 23 82  1  0  0  0
 24 25  1  0  0  0
 24 83  1  0  0  0
 24 84  1  0  0  0
 25 85  1  0  0  0
 25 86  1  0  0  0
 26 27  1  0  0  0
 26 87  1  0  0  0
 27 28  1  0  0  0
 27 30  1  0  0  0
 27 88  1  0  0  0
 28 29  1  0  0  0
 28 89  1  0  0  0
 28 90  1  0  0  0
 29 32  1  0  0  0
 30 31  2  0  0  0
 30 36  1  0  0  0
 32 33  1  0  0  0
 32 34  1  0  0  0
 32 35  2  0  0  0
 36 37  1  0  0  0
 36 91  1  0  0  0
 37 38  1  0  0  0
 37 40  1  0  0  0
 37 92  1  0  0  0
 38 39  2  0  0  0
 38 44  1  0  0  0
 40 41  1  0  0  0
 40 93  1  0  0  0
 40 94  1  0  0  0
 41 42  1  0  0  0
 41 43  1  0  0  0
 41 95  1  0  0  0
 42 96  1  0  0  0
 42 97  1  0  0  0
 42 98  1  0  0  0
 43 99  1  0  0  0
 43100  1  0  0  0
 43101  1  0  0  0
 44 45  1  0  0  0
 44 50  1  0  0  0
 45 46  1  0  0  0
 45 48  1  0  0  0
 45102  1  0  0  0
 46 47  2  0  0  0
 46 51  1  0  0  0
 48 49  1  0  0  0
 48103  1  0  0  0
 48104  1  0  0  0
 49 50  1  0  0  0
 49105  1  0  0  0
 49106  1  0  0  0
 50107  1  0  0  0
 50108  1  0  0  0
 51 52  1  0  0  0
 51109  1  0  0  0
 52 53  1  0  0  0
 52 55  1  0  0  0
 52110  1  0  0  0
 53 54  2  0  0  0
 53 58  1  0  0  0
 55 56  1  0  0  0
 55 57  1  0  0  0
 55111  1  0  0  0
 56112  1  0  0  0
 57113  1  0  0  0
 57114  1  0  0  0
 57115  1  0  0  0
M  CHG  5   1   1  11   1  33  -1  34  -1  58  -1
M  END
> <s_m_source_file>
../4y3b_ligand.sdf

> <i_m_source_file_index>
1

> <s_epik_input>
W0hdL049QyhbTkgyXSlcW05IXVtDSDJdW0NIMl1bQ0gyXVtDQEhdKFtOSDMrXSlDKD1PKVtOSF1bQ0BASF0oW0NASF0oW09IXSlbQ0gzXSlDKD1PKU4xW0NAQEhdKFtDSDJdW0NIMl1bQ0gyXTEpQyg9TylbTkhdW0NAQEhdKFtDSDJdT1AoPU8pKFtPSF0pW09IXSlDKD1PKVtOSF1bQ0BASF0oW0NIMl1bQ0hdKFtDSDNdKVtDSDNdKUMoPU8pTjJbQ0BASF0oW0NIMl1bQ0gyXVtDSDJdMilDKD1PKVtOSF1bQ0BIXShDKD1PKVtPSF0pW0NASF0oW09IXSlbQ0gzXQ==

> <s_epik_cmdline>
J2VwaWtfYXBwJywgJy1pbWFlJywgJ2xpZ2FuZF9wcm8ubWFlJywgJy1vbWFlJywgJ2xpZ2FuZF9wcmVwLm1hZScsICctbXMnLCAnMScsICctcGgnLCAnNycsICctcGh0JywgJzAuNScsICctbnQn

> <r_epik_Ionization_Penalty>
  0.2249

> <r_epik_Ionization_Penalty_Charging>
  0.2249

> <r_epik_Ionization_Penalty_Neutral>
  0.0000

> <r_epik_State_Penalty>
  0.1904

> <r_epik_Charging_Adjusted_Penalty>
0.415276191219636

> <i_epik_Tot_Q>
-1

> <i_epik_Tot_abs_Q>
5

> <s_epik_Chemistry_Notes>
This compound has an imine and may undergo hydrolysis.

$$$$
