4y46_ligand
                    3D
 Schrodinger Suite 2020-3.
 62 65  0  0  1  0            999 V2000
    2.2840  -30.3820  -29.6930 C   0  0  0  0  0  0
    2.2940  -30.5100  -31.2000 C   0  0  2  0  0  0
    1.3970  -31.7200  -31.5790 C   0  0  0  0  0  0
    0.0050  -31.7100  -30.9610 C   0  0  0  0  0  0
    6.0390  -27.3170  -32.8170 C   0  0  0  0  0  0
    6.7780  -26.1730  -33.1650 C   0  0  0  0  0  0
    6.3200  -24.9070  -32.9820 C   0  0  0  0  0  0
    4.9950  -24.6180  -32.4060 C   0  0  0  0  0  0
    2.9280  -25.5440  -31.4100 C   0  0  0  0  0  0
    2.9720  -25.8750  -29.8730 C   0  0  0  0  0  0
    1.7760  -26.7240  -29.4800 C   0  0  0  0  0  0
    1.6920  -26.2760  -31.8470 C   0  0  0  0  0  0
    4.7490  -27.1240  -32.2550 C   0  0  0  0  0  0
    4.4860  -29.4840  -32.0470 C   0  0  0  0  0  0
   -2.5420  -35.7890  -29.7390 C   0  0  0  0  0  0
   -3.0700  -34.5950  -28.8930 C   0  0  0  0  0  0
   -4.5570  -34.3300  -29.3120 C   0  0  0  0  0  0
   -2.1230  -33.4610  -29.0410 N   0  0  0  0  0  0
   -2.3670  -32.0660  -28.6550 C   0  0  0  0  0  0
   -3.4340  -31.7070  -28.1580 O   0  0  0  0  0  0
   -1.3600  -31.0960  -28.8750 N   0  0  0  0  0  0
   -0.0170  -31.3910  -29.4480 C   0  0  2  0  0  0
    0.9210  -30.2110  -29.1210 C   0  0  0  0  0  0
    3.6830  -30.5750  -31.7100 N   0  0  0  0  0  0
    5.7430  -29.6920  -32.5880 N   0  0  0  0  0  0
    6.4410  -28.6170  -32.9460 C   0  0  0  0  0  0
    4.5940  -23.4740  -32.2520 O   0  0  0  0  0  0
    4.2620  -25.8070  -32.0760 N   0  0  0  0  0  0
    0.8150  -26.3700  -30.5980 C   0  0  0  0  0  0
    4.0130  -28.2080  -31.8930 N   0  0  0  0  0  0
    2.7178  -31.2883  -29.2452 H   0  0  0  0  0  0
    2.8783  -29.5055  -29.3955 H   0  0  0  0  0  0
    1.9123  -29.6018  -31.6893 H   0  0  0  0  0  0
    1.2565  -31.7449  -32.6697 H   0  0  0  0  0  0
    1.8802  -32.6519  -31.2502 H   0  0  0  0  0  0
   -0.6120  -30.9480  -31.4596 H   0  0  0  0  0  0
   -0.4598  -32.6988  -31.0882 H   0  0  0  0  0  0
    7.7669  -26.3082  -33.6031 H   0  0  0  0  0  0
    6.9579  -24.0723  -33.2727 H   0  0  0  0  0  0
    2.8166  -24.5039  -31.7504 H   0  0  0  0  0  0
    3.8948  -26.4279  -29.6433 H   0  0  0  0  0  0
    2.9521  -24.9389  -29.2956 H   0  0  0  0  0  0
    2.0685  -27.7843  -29.4636 H   0  0  0  0  0  0
    1.4262  -26.4247  -28.4810 H   0  0  0  0  0  0
    1.1940  -25.7093  -32.6476 H   0  0  0  0  0  0
    1.9690  -27.2727  -32.2210 H   0  0  0  0  0  0
   -3.2316  -36.6405  -29.6419 H   0  0  0  0  0  0
   -1.5450  -36.0816  -29.3779 H   0  0  0  0  0  0
   -2.4760  -35.4891  -30.7953 H   0  0  0  0  0  0
   -3.0608  -34.7529  -27.8044 H   0  0  0  0  0  0
   -5.1504  -35.2428  -29.1549 H   0  0  0  0  0  0
   -4.5937  -34.0471  -30.3744 H   0  0  0  0  0  0
   -4.9703  -33.5142  -28.7008 H   0  0  0  0  0  0
   -1.1273  -33.6293  -29.4772 H   0  0  0  0  0  0
   -1.6230  -30.0661  -28.5917 H   0  0  0  0  0  0
    0.2920  -32.3237  -28.9534 H   0  0  0  0  0  0
    0.9903  -30.1304  -28.0261 H   0  0  0  0  0  0
    0.4647  -29.2965  -29.5278 H   0  0  0  0  0  0
    4.1711  -31.5503  -31.8536 H   0  0  0  0  0  0
    7.4247  -28.7892  -33.3827 H   0  0  0  0  0  0
    0.0542  -27.1590  -30.6911 H   0  0  0  0  0  0
    0.3241  -25.4124  -30.3701 H   0  0  0  0  0  0
  1  2  1  0  0  0
  1 23  1  0  0  0
  1 31  1  0  0  0
  1 32  1  0  0  0
  2  3  1  0  0  0
  2 24  1  0  0  0
  2 33  1  0  0  0
  3  4  1  0  0  0
  3 34  1  0  0  0
  3 35  1  0  0  0
  4 22  1  0  0  0
  4 36  1  0  0  0
  4 37  1  0  0  0
  5  6  1  0  0  0
  5 13  2  0  0  0
  5 26  1  0  0  0
  6  7  2  0  0  0
  6 38  1  0  0  0
  7  8  1  0  0  0
  7 39  1  0  0  0
  8 27  2  0  0  0
  8 28  1  0  0  0
  9 10  1  0  0  0
  9 12  1  0  0  0
  9 28  1  0  0  0
  9 40  1  0  0  0
 10 11  1  0  0  0
 10 41  1  0  0  0
 10 42  1  0  0  0
 11 29  1  0  0  0
 11 43  1  0  0  0
 11 44  1  0  0  0
 12 29  1  0  0  0
 12 45  1  0  0  0
 12 46  1  0  0  0
 13 28  1  0  0  0
 13 30  1  0  0  0
 14 24  1  0  0  0
 14 25  1  0  0  0
 14 30  2  0  0  0
 15 16  1  0  0  0
 15 47  1  0  0  0
 15 48  1  0  0  0
 15 49  1  0  0  0
 16 17  1  0  0  0
 16 18  1  0  0  0
 16 50  1  0  0  0
 17 51  1  0  0  0
 17 52  1  0  0  0
 17 53  1  0  0  0
 18 19  1  0  0  0
 18 54  1  0  0  0
 19 20  2  0  0  0
 19 21  1  0  0  0
 21 22  1  0  0  0
 21 55  1  0  0  0
 22 23  1  0  0  0
 22 56  1  0  0  0
 23 57  1  0  0  0
 23 58  1  0  0  0
 24 59  1  0  0  0
 25 26  2  0  0  0
 26 60  1  0  0  0
 29 61  1  0  0  0
 29 62  1  0  0  0
M  END
> <s_m_source_file>
../4y46_ligand.sdf

> <i_m_source_file_index>
1

> <s_epik_input>
W0NIM11bQ0hdKFtDSDNdKVtOSF1DKD1PKVtOSF1bQ0BASF0oW0NIMl1bQ0gyXTEpW0NIMl1bQ0gyXVtDQEhdMVtOSF1jKG5bY0hdMiluYyhjMjMpbihjKD1PKVtjSF1bY0hdMylbQ0hdNFtDSDJdW0NIMl1bQ0gyXVtDSDJdNA==

> <s_epik_cmdline>
J2VwaWtfYXBwJywgJy1pbWFlJywgJ2xpZ2FuZF9wcm8ubWFlJywgJy1vbWFlJywgJ2xpZ2FuZF9wcmVwLm1hZScsICctbXMnLCAnMScsICctcGgnLCAnNycsICctcGh0JywgJzAuNScsICctbnQn

> <r_lp_tautomer_probability>
1

> <r_epik_Ionization_Penalty>
  0.0001

> <r_epik_Ionization_Penalty_Charging>
  0.0000

> <r_epik_Ionization_Penalty_Neutral>
  0.0001

> <r_epik_State_Penalty>
 -0.0000

> <r_epik_Charging_Adjusted_Penalty>
1.9697701319112e-07

> <i_epik_Tot_Q>
0

> <i_epik_Tot_abs_Q>
0

> <s_epik_Chemistry_Notes>
This compound has an imine and may undergo hydrolysis.

$$$$
