4y5h_ligand
                    3D
 Schrodinger Suite 2020-3.
 58 60  0  0  1  0            999 V2000
   -4.7650  -33.9910  -28.9120 C   0  0  0  0  0  0
   -3.9530  -33.5430  -27.7150 C   0  0  0  0  0  0
   -3.0940  -34.6460  -27.1280 C   0  0  0  0  0  0
   -3.1930  -32.3700  -28.0080 N   0  0  0  0  0  0
   -2.1110  -32.3170  -28.9320 C   0  0  0  0  0  0
   -1.7840  -33.3210  -29.5330 O   0  0  0  0  0  0
   -1.4610  -31.0460  -29.0690 N   0  0  0  0  0  0
   -0.3610  -30.6820  -29.9430 C   0  0  2  0  0  0
    0.1180  -31.7860  -30.8740 C   0  0  0  0  0  0
    1.1840  -31.2140  -31.7790 C   0  0  0  0  0  0
    2.3900  -30.8310  -30.9440 C   0  0  2  0  0  0
    2.0310  -29.7270  -29.9590 C   0  0  0  0  0  0
    0.7910  -30.0730  -29.1390 C   0  0  0  0  0  0
    3.5140  -30.5990  -31.8180 N   0  0  0  0  0  0
    4.1940  -29.3910  -32.1320 C   0  0  0  0  0  0
    5.4150  -29.5620  -32.7350 N   0  0  0  0  0  0
    6.1630  -28.4980  -33.1150 C   0  0  0  0  0  0
    5.6960  -27.1970  -32.9070 C   0  0  0  0  0  0
    6.5280  -26.0200  -33.3350 C   0  0  0  0  0  0
    6.0350  -24.6740  -33.0960 C   0  0  0  0  0  0
    4.7210  -24.5090  -32.4600 C   0  0  0  0  0  0
    4.3540  -23.3780  -32.3130 O   0  0  0  0  0  0
    3.9070  -25.6450  -32.0420 N   0  0  0  0  0  0
    2.6370  -25.4580  -31.4030 C   0  0  0  0  0  0
    2.7000  -25.9440  -29.9590 C   0  0  0  0  0  0
    1.5110  -26.1520  -32.1280 C   0  0  0  0  0  0
    4.4300  -27.0280  -32.2820 C   0  0  0  0  0  0
    3.7120  -28.1410  -31.9170 N   0  0  0  0  0  0
   -5.3359  -34.8942  -28.6505 H   0  0  0  0  0  0
   -4.0892  -34.2144  -29.7507 H   0  0  0  0  0  0
   -5.4598  -33.1899  -29.2043 H   0  0  0  0  0  0
   -4.6527  -33.2153  -26.9321 H   0  0  0  0  0  0
   -3.7198  -35.5262  -26.9191 H   0  0  0  0  0  0
   -2.6331  -34.2937  -26.1934 H   0  0  0  0  0  0
   -2.3060  -34.9183  -27.8456 H   0  0  0  0  0  0
   -3.4300  -31.4211  -27.5046 H   0  0  0  0  0  0
   -1.9012  -30.2947  -28.3969 H   0  0  0  0  0  0
   -0.8260  -29.9298  -30.5972 H   0  0  0  0  0  0
    0.5324  -32.6132  -30.2790 H   0  0  0  0  0  0
   -0.7282  -32.1533  -31.4732 H   0  0  0  0  0  0
    1.4748  -31.9681  -32.5252 H   0  0  0  0  0  0
    0.7908  -30.3237  -32.2915 H   0  0  0  0  0  0
    2.7703  -31.6529  -30.3196 H   0  0  0  0  0  0
    2.8690  -29.5688  -29.2642 H   0  0  0  0  0  0
    1.8300  -28.7959  -30.5091 H   0  0  0  0  0  0
    0.4539  -29.1395  -28.6648 H   0  0  0  0  0  0
    1.1122  -30.7833  -28.3629 H   0  0  0  0  0  0
    3.9709  -31.4393  -32.3613 H   0  0  0  0  0  0
    7.1334  -28.6573  -33.5851 H   0  0  0  0  0  0
    7.4918  -26.1749  -33.8200 H   0  0  0  0  0  0
    6.6276  -23.8052  -33.3826 H   0  0  0  0  0  0
    2.4726  -24.3722  -31.4665 H   0  0  0  0  0  0
    3.5227  -25.4343  -29.4362 H   0  0  0  0  0  0
    2.8736  -27.0301  -29.9449 H   0  0  0  0  0  0
    1.7491  -25.7181  -29.4543 H   0  0  0  0  0  0
    1.4711  -25.7972  -33.1684 H   0  0  0  0  0  0
    0.5581  -25.9265  -31.6268 H   0  0  0  0  0  0
    1.6827  -27.2385  -32.1174 H   0  0  0  0  0  0
  1  2  1  0  0  0
  1 29  1  0  0  0
  1 30  1  0  0  0
  1 31  1  0  0  0
  2  3  1  0  0  0
  2  4  1  0  0  0
  2 32  1  0  0  0
  3 33  1  0  0  0
  3 34  1  0  0  0
  3 35  1  0  0  0
  4  5  1  0  0  0
  4 36  1  0  0  0
  5  6  2  0  0  0
  5  7  1  0  0  0
  7  8  1  0  0  0
  7 37  1  0  0  0
  8  9  1  0  0  0
  8 13  1  0  0  0
  8 38  1  0  0  0
  9 10  1  0  0  0
  9 39  1  0  0  0
  9 40  1  0  0  0
 10 11  1  0  0  0
 10 41  1  0  0  0
 10 42  1  0  0  0
 11 12  1  0  0  0
 11 14  1  0  0  0
 11 43  1  0  0  0
 12 13  1  0  0  0
 12 44  1  0  0  0
 12 45  1  0  0  0
 13 46  1  0  0  0
 13 47  1  0  0  0
 14 15  1  0  0  0
 14 48  1  0  0  0
 15 16  1  0  0  0
 15 28  2  0  0  0
 16 17  2  0  0  0
 17 18  1  0  0  0
 17 49  1  0  0  0
 18 19  1  0  0  0
 18 27  2  0  0  0
 19 20  2  0  0  0
 19 50  1  0  0  0
 20 21  1  0  0  0
 20 51  1  0  0  0
 21 22  2  0  0  0
 21 23  1  0  0  0
 23 24  1  0  0  0
 23 27  1  0  0  0
 24 25  1  0  0  0
 24 26  1  0  0  0
 24 52  1  0  0  0
 25 53  1  0  0  0
 25 54  1  0  0  0
 25 55  1  0  0  0
 26 56  1  0  0  0
 26 57  1  0  0  0
 26 58  1  0  0  0
 27 28  1  0  0  0
M  END
> <s_m_source_file>
../4y5h_ligand.sdf

> <i_m_source_file_index>
1

> <s_epik_input>
W0NIM11bQ0hdKFtDSDNdKVtOSF1DKD1PKVtOSF1bQ0BASF0xW0NIMl1bQ0gyXVtDQEhdKFtDSDJdW0NIMl0xKVtOSF1jKG5bY0hdMiluYyhjMjMpbihbQ0hdKFtDSDNdKVtDSDNdKWMoPU8pW2NIXVtjSF0z

> <s_epik_cmdline>
J2VwaWtfYXBwJywgJy1pbWFlJywgJ2xpZ2FuZF9wcm8ubWFlJywgJy1vbWFlJywgJ2xpZ2FuZF9wcmVwLm1hZScsICctbXMnLCAnMScsICctcGgnLCAnNycsICctcGh0JywgJzAuNScsICctbnQn

> <r_lp_tautomer_probability>
1

> <r_epik_Ionization_Penalty>
  0.0001

> <r_epik_Ionization_Penalty_Charging>
  0.0000

> <r_epik_Ionization_Penalty_Neutral>
  0.0001

> <r_epik_State_Penalty>
 -0.0000

> <r_epik_Charging_Adjusted_Penalty>
2.3675017719969e-07

> <i_epik_Tot_Q>
0

> <i_epik_Tot_abs_Q>
0

> <s_epik_Chemistry_Notes>
This compound has an imine and may undergo hydrolysis.

$$$$
