4y5s_ligand
                    3D
 Schrodinger Suite 2020-3.
 14 13  0  0  1  0            999 V2000
  134.2670    3.1820  122.6850 C   0  0  0  0  0  0
  133.4770    3.5200  121.7710 O   0  5  0  0  0  0
  133.9060    2.8760  123.8440 O   0  0  0  0  0  0
  135.6940    3.1380  122.4140 C   0  0  0  0  0  0
  136.4360    2.9210  123.3600 O   0  0  0  0  0  0
  136.1950    3.3490  120.9950 C   0  0  0  0  0  0
  137.7170    3.2850  120.9110 C   0  0  0  0  0  0
  138.1980    3.5840  119.4980 C   0  0  0  0  0  0
  137.4970    4.2630  118.7100 O   0  5  0  0  0  0
  139.3140    3.1430  119.1480 O   0  0  0  0  0  0
  135.7817    2.5677  120.3403 H   0  0  0  0  0  0
  135.8724    4.3372  120.6354 H   0  0  0  0  0  0
  138.1535    4.0262  121.5966 H   0  0  0  0  0  0
  138.0579    2.2782  121.1942 H   0  0  0  0  0  0
  1  2  1  0  0  0
  1  3  2  0  0  0
  1  4  1  0  0  0
  4  5  2  0  0  0
  4  6  1  0  0  0
  6  7  1  0  0  0
  6 11  1  0  0  0
  6 12  1  0  0  0
  7  8  1  0  0  0
  7 13  1  0  0  0
  7 14  1  0  0  0
  8  9  1  0  0  0
  8 10  2  0  0  0
M  CHG  2   2  -1   9  -1
M  END
> <s_m_source_file>
../4y5s_ligand.sdf

> <i_m_source_file_index>
1

> <s_epik_input>
W09IXUMoPU8pQyg9TylbQ0gyXVtDSDJdQyg9TylbT0hd

> <s_epik_cmdline>
J2VwaWtfYXBwJywgJy1pbWFlJywgJ2xpZ2FuZF9wcm8ubWFlJywgJy1vbWFlJywgJ2xpZ2FuZF9wcmVwLm1hZScsICctbXMnLCAnMScsICctcGgnLCAnNycsICctcGh0JywgJzAuNScsICctbnQn

> <r_lp_tautomer_probability>
1

> <r_epik_Ionization_Penalty>
  0.0013

> <r_epik_Ionization_Penalty_Charging>
  0.0013

> <r_epik_Ionization_Penalty_Neutral>
  0.0000

> <r_epik_State_Penalty>
 -0.0000

> <r_epik_Charging_Adjusted_Penalty>
0.00129329390835398

> <i_epik_Tot_Q>
-2

> <i_epik_Tot_abs_Q>
2

$$$$
