4y62_ligand
                    3D
 Schrodinger Suite 2020-3.
 55 58  0  0  1  0            999 V2000
   18.2070   24.3720    7.0300 O   0  0  0  0  0  0
   17.6740   23.6750    7.8910 C   0  0  0  0  0  0
   18.2420   23.6720    9.1700 N   0  0  0  0  0  0
   17.6960   22.9090   10.2010 C   0  0  0  0  0  0
   18.2310   22.9360   11.3060 O   0  0  0  0  0  0
   16.5750   22.1280    9.9510 C   0  0  0  0  0  0
   16.0230   22.1390    8.6710 C   0  0  0  0  0  0
   16.5850   22.9210    7.6270 N   0  0  0  0  0  0
   15.9780   22.9300    6.2590 C   0  0  2  0  0  0
   14.6880   22.2510    6.1920 O   0  0  0  0  0  0
   16.8720   22.2440    5.2360 C   0  0  2  0  0  0
   16.7090   22.8450    3.9430 O   0  0  0  0  0  0
   16.3450   20.8580    5.2490 C   0  0  2  0  0  0
   16.6440   20.1850    4.0210 O   0  0  0  0  0  0
   14.8500   21.0380    5.4090 C   0  0  1  0  0  0
   14.2990   19.7490    6.0330 C   0  0  0  0  0  0
   12.8580   19.7990    6.3410 N   0  0  0  0  0  0
   12.3860   20.1270    7.5590 C   0  0  0  0  0  0
   13.1050   20.4450    8.5020 O   0  0  0  0  0  0
   10.8610   20.0420    7.7400 C   0  0  1  0  0  0
   10.5370   18.6180    8.2300 C   0  0  0  0  0  0
    9.2050   18.5420    8.7510 O   0  0  0  0  0  0
   10.3870   21.0840    8.7150 N   0  0  0  0  0  0
   10.4880   21.1030   10.0470 C   0  0  0  0  0  0
    9.8090   22.1060    8.3480 N   0  0  0  0  0  0
    9.5070   22.8230    9.2880 N   0  0  0  0  0  0
    9.9130   22.2380   10.4020 C   0  0  0  0  0  0
    9.7530   22.7320   11.6350 C   0  0  0  0  0  0
   10.1420   24.0440   11.9210 C   0  0  0  0  0  0
    9.9710   24.5710   13.2030 C   0  0  0  0  0  0
    9.4050   23.7880   14.2100 C   0  0  0  0  0  0
    9.0110   22.4790   13.9310 C   0  0  0  0  0  0
    9.1850   21.9580   12.6480 C   0  0  0  0  0  0
   19.1357   24.2792    9.3763 H   0  0  0  0  0  0
   16.1354   21.5183   10.7404 H   0  0  0  0  0  0
   15.1399   21.5336    8.4667 H   0  0  0  0  0  0
   15.8143   23.9961    6.0433 H   0  0  0  0  0  0
   17.9557   22.3117    5.4118 H   0  0  0  0  0  0
   17.0509   23.8759    3.7686 H   0  0  0  0  0  0
   16.8187   20.2257    6.0144 H   0  0  0  0  0  0
   17.6890   19.9742    3.7496 H   0  0  0  0  0  0
   14.2742   21.2265    4.4909 H   0  0  0  0  0  0
   14.4531   18.9103    5.3381 H   0  0  0  0  0  0
   14.8254   19.5445    6.9770 H   0  0  0  0  0  0
   12.1202   19.5628    5.5601 H   0  0  0  0  0  0
   10.3297   20.2591    6.8016 H   0  0  0  0  0  0
   10.6272   17.9122    7.3911 H   0  0  0  0  0  0
   11.2422   18.3345    9.0251 H   0  0  0  0  0  0
    8.8210   17.5883    9.1420 H   0  0  0  0  0  0
   10.9419   20.3523   10.6940 H   0  0  0  0  0  0
   10.5822   24.6605   11.1373 H   0  0  0  0  0  0
   10.2797   25.5942   13.4171 H   0  0  0  0  0  0
    9.2712   24.1977   15.2112 H   0  0  0  0  0  0
    8.5678   21.8639   14.7142 H   0  0  0  0  0  0
    8.8739   20.9353   12.4348 H   0  0  0  0  0  0
  1  2  2  0  0  0
  2  3  1  0  0  0
  2  8  1  0  0  0
  3  4  1  0  0  0
  3 34  1  0  0  0
  4  5  2  0  0  0
  4  6  1  0  0  0
  6  7  2  0  0  0
  6 35  1  0  0  0
  7  8  1  0  0  0
  7 36  1  0  0  0
  8  9  1  0  0  0
  9 10  1  0  0  0
  9 11  1  0  0  0
  9 37  1  0  0  0
 10 15  1  0  0  0
 11 12  1  0  0  0
 11 13  1  0  0  0
 11 38  1  0  0  0
 12 39  1  0  0  0
 13 14  1  0  0  0
 13 15  1  0  0  0
 13 40  1  0  0  0
 14 41  1  0  0  0
 15 16  1  0  0  0
 15 42  1  0  0  0
 16 17  1  0  0  0
 16 43  1  0  0  0
 16 44  1  0  0  0
 17 18  1  0  0  0
 17 45  1  0  0  0
 18 19  2  0  0  0
 18 20  1  0  0  0
 20 21  1  0  0  0
 20 23  1  0  0  0
 20 46  1  0  0  0
 21 22  1  0  0  0
 21 47  1  0  0  0
 21 48  1  0  0  0
 22 49  1  0  0  0
 23 24  1  0  0  0
 23 25  1  0  0  0
 24 27  2  0  0  0
 24 50  1  0  0  0
 25 26  2  0  0  0
 26 27  1  0  0  0
 27 28  1  0  0  0
 28 29  2  0  0  0
 28 33  1  0  0  0
 29 30  1  0  0  0
 29 51  1  0  0  0
 30 31  2  0  0  0
 30 52  1  0  0  0
 31 32  1  0  0  0
 31 53  1  0  0  0
 32 33  2  0  0  0
 32 54  1  0  0  0
 33 55  1  0  0  0
M  END
> <s_m_source_file>
../4y62_ligand.sdf

> <i_m_source_file_index>
1

> <s_epik_input>
Tz1jMVtuSF1jKD1PKVtjSF1bY0hdbjFbQ0BASF0yT1tDQEBIXShbQ0BASF0oW09IXSlbQ0BIXTJbT0hdKVtDSDJdW05IXUMoPU8pW0NAQEhdKFtDSDJdW09IXSluM1tjSF1jKG5uMyktYzRbY0hdW2NIXVtjSF1bY0hdW2NIXTQ=

> <s_epik_cmdline>
J2VwaWtfYXBwJywgJy1pbWFlJywgJ2xpZ2FuZF9wcm8ubWFlJywgJy1vbWFlJywgJ2xpZ2FuZF9wcmVwLm1hZScsICctbXMnLCAnMScsICctcGgnLCAnNycsICctcGh0JywgJzAuNScsICctbnQn

> <r_lp_tautomer_probability>
1

> <r_epik_Ionization_Penalty>
  0.0026

> <r_epik_Ionization_Penalty_Charging>
  0.0026

> <r_epik_Ionization_Penalty_Neutral>
  0.0000

> <r_epik_State_Penalty>
 -0.0000

> <r_epik_Charging_Adjusted_Penalty>
0.00259381384658922

> <i_epik_Tot_Q>
0

> <i_epik_Tot_abs_Q>
0

> <s_epik_Chemistry_Notes>
This compound contains an acetal/aminal-like group ( X-CH(R)-Y where X, Y are N, S, or O) that may be acid/base labile, releasing an aldehyde.

$$$$
