4y63_ligand
                    3D
 Schrodinger Suite 2020-3.
 40 41  0  0  1  0            999 V2000
   14.4090   19.0660    9.5940 N   0  0  0  0  0  0
   18.2760   24.6350    6.8260 O   0  0  0  0  0  0
   17.6930   24.0580    7.7400 C   0  0  0  0  0  0
   18.2270   24.0970    9.0260 N   0  0  0  0  0  0
   17.6010   23.4590   10.0910 C   0  0  0  0  0  0
   18.1180   23.5240   11.2070 O   0  0  0  0  0  0
   16.4170   22.7660    9.8580 C   0  0  0  0  0  0
   15.8970   22.7380    8.5620 C   0  0  0  0  0  0
   16.5530   23.3940    7.4990 N   0  0  0  0  0  0
   16.0210   23.3900    6.1070 C   0  0  2  0  0  0
   14.6720   22.8790    6.0880 O   0  0  0  0  0  0
   16.8520   22.4990    5.1740 C   0  0  2  0  0  0
   16.8580   23.0410    3.8300 O   0  0  0  0  0  0
   16.0690   21.2400    5.2220 C   0  0  2  0  0  0
   16.3440   20.4110    4.0830 O   0  0  0  0  0  0
   14.6530   21.7930    5.1610 C   0  0  1  0  0  0
   13.5600   20.7840    5.5350 C   0  0  0  0  0  0
   13.8520   20.1760    6.8340 N   0  0  0  0  0  0
   14.5030   19.0070    6.9830 C   0  0  0  0  0  0
   14.9210   18.3770    6.0080 O   0  0  0  0  0  0
   14.7880   18.4770    8.4370 C   0  0  3  0  0  0
   15.5030   17.1450    8.6300 C   0  0  0  0  0  0
   13.8910   19.9910    9.6460 N   0  0  0  0  0  0
   13.3490   20.9600    9.6950 N   0  0  0  0  0  0
   19.1639   24.6411    9.2162 H   0  0  0  0  0  0
   15.9045   22.2541   10.6725 H   0  0  0  0  0  0
   14.9688   22.2003    8.3686 H   0  0  0  0  0  0
   16.0105   24.4392    5.7768 H   0  0  0  0  0  0
   17.9191   22.3835    5.4149 H   0  0  0  0  0  0
   17.3955   23.9767    3.6167 H   0  0  0  0  0  0
   16.3108   20.5760    6.0650 H   0  0  0  0  0  0
   17.3287   19.9326    3.9758 H   0  0  0  0  0  0
   14.3993   22.1461    4.1506 H   0  0  0  0  0  0
   12.5893   21.2985    5.5897 H   0  0  0  0  0  0
   13.5136   19.9937    4.7712 H   0  0  0  0  0  0
   13.5347   20.6779    7.7600 H   0  0  0  0  0  0
   14.5566   19.4434    8.9088 H   0  0  0  0  0  0
   15.6132   16.9404    9.7052 H   0  0  0  0  0  0
   16.4973   17.1914    8.1618 H   0  0  0  0  0  0
   14.9146   16.3419    8.1623 H   0  0  0  0  0  0
  1 21  1  0  0  0
  1 23  2  0  0  0
  2  3  2  0  0  0
  3  4  1  0  0  0
  3  9  1  0  0  0
  4  5  1  0  0  0
  4 25  1  0  0  0
  5  6  2  0  0  0
  5  7  1  0  0  0
  7  8  2  0  0  0
  7 26  1  0  0  0
  8  9  1  0  0  0
  8 27  1  0  0  0
  9 10  1  0  0  0
 10 11  1  0  0  0
 10 12  1  0  0  0
 10 28  1  0  0  0
 11 16  1  0  0  0
 12 13  1  0  0  0
 12 14  1  0  0  0
 12 29  1  0  0  0
 13 30  1  0  0  0
 14 15  1  0  0  0
 14 16  1  0  0  0
 14 31  1  0  0  0
 15 32  1  0  0  0
 16 17  1  0  0  0
 16 33  1  0  0  0
 17 18  1  0  0  0
 17 34  1  0  0  0
 17 35  1  0  0  0
 18 19  1  0  0  0
 18 36  1  0  0  0
 19 20  2  0  0  0
 19 21  1  0  0  0
 21 22  1  0  0  0
 21 37  1  0  0  0
 22 38  1  0  0  0
 22 39  1  0  0  0
 22 40  1  0  0  0
 23 24  3  0  0  0
M  END
> <s_m_source_file>
../4y63_ligand.sdf

> <i_m_source_file_index>
1

> <s_epik_input>
TiNOPU5bQ0hdKFtDSDNdKUMoPU8pW05IXVtDSDJdW0NASF0oW0NAQEhdKFtPSF0pW0NASF0xW09IXSlPW0NASF0xbjJbY0hdW2NIXWMoPU8pW25IXWMyPU8=

> <s_epik_cmdline>
J2VwaWtfYXBwJywgJy1pbWFlJywgJ2xpZ2FuZF9wcm8ubWFlJywgJy1vbWFlJywgJ2xpZ2FuZF9wcmVwLm1hZScsICctbXMnLCAnMScsICctcGgnLCAnNycsICctcGh0JywgJzAuNScsICctbnQn

> <r_lp_tautomer_probability>
1

> <r_epik_Ionization_Penalty>
  0.0026

> <r_epik_Ionization_Penalty_Charging>
  0.0026

> <r_epik_Ionization_Penalty_Neutral>
  0.0000

> <r_epik_State_Penalty>
 -0.0000

> <r_epik_Charging_Adjusted_Penalty>
0.00259381384658922

> <i_epik_Tot_Q>
0

> <i_epik_Tot_abs_Q>
0

> <s_epik_Chemistry_Notes>
This compound contains an acetal/aminal-like group ( X-CH(R)-Y where X, Y are N, S, or O) that may be acid/base labile, releasing an aldehyde.

$$$$
