4y64_ligand
                    3D
 Schrodinger Suite 2020-3.
 41 42  0  0  1  0            999 V2000
   18.1810   24.7070    6.8930 O   0  0  0  0  0  0
   17.5630   24.1220    7.7850 C   0  0  0  0  0  0
   18.0830   24.1860    9.0610 N   0  0  0  0  0  0
   17.4610   23.5470   10.1580 C   0  0  0  0  0  0
   17.9650   23.6630   11.2860 O   0  0  0  0  0  0
   16.3090   22.8010    9.9290 C   0  0  0  0  0  0
   15.7950   22.7370    8.6240 C   0  0  0  0  0  0
   16.4490   23.3950    7.5350 N   0  0  0  0  0  0
   15.9170   23.3480    6.1320 C   0  0  2  0  0  0
   14.5960   22.7790    6.0280 O   0  0  0  0  0  0
   16.8220   22.5400    5.1860 C   0  0  2  0  0  0
   16.8280   23.0880    3.8370 O   0  0  0  0  0  0
   16.1600   21.2060    5.2340 C   0  0  2  0  0  0
   16.4670   20.4610    4.0750 O   0  0  0  0  0  0
   14.6730   21.5090    5.2880 C   0  0  1  0  0  0
   13.8060   20.2510    5.7240 C   0  0  0  0  0  0
   14.5140   19.3520    6.6700 N   0  0  0  0  0  0
   14.9190   18.0270    6.6990 C   0  0  0  0  0  0
   15.5260   17.6240    7.6950 O   0  0  0  0  0  0
   14.6460   16.9040    5.6450 C   0  0  2  0  0  0
   14.8270   17.3120    4.2530 N   0  3  0  0  0  0
   13.2860   16.1980    5.9140 C   0  0  0  0  0  0
   19.0100   24.7473    9.2496 H   0  0  0  0  0  0
   15.8151   22.2764   10.7469 H   0  0  0  0  0  0
   14.8799   22.1751    8.4370 H   0  0  0  0  0  0
   15.8246   24.4074    5.8508 H   0  0  0  0  0  0
   17.8945   22.5249    5.4299 H   0  0  0  0  0  0
   17.2840   24.0703    3.6444 H   0  0  0  0  0  0
   16.5283   20.5718    6.0538 H   0  0  0  0  0  0
   17.5047   20.1543    3.8771 H   0  0  0  0  0  0
   14.2064   21.7591    4.3238 H   0  0  0  0  0  0
   12.8849   20.5939    6.2180 H   0  0  0  0  0  0
   13.5461   19.6586    4.8343 H   0  0  0  0  0  0
   14.8554   19.7360    7.6426 H   0  0  0  0  0  0
   15.4580   16.1646    5.7068 H   0  0  0  0  0  0
   15.8054   17.8016    4.1387 H   0  0  0  0  0  0
   14.0298   18.0153    3.9705 H   0  0  0  0  0  0
   14.7820   16.4261    3.6025 H   0  0  0  0  0  0
   13.2205   15.9210    6.9765 H   0  0  0  0  0  0
   13.2141   15.2923    5.2938 H   0  0  0  0  0  0
   12.4619   16.8815    5.6618 H   0  0  0  0  0  0
  1  2  2  0  0  0
  2  3  1  0  0  0
  2  8  1  0  0  0
  3  4  1  0  0  0
  3 23  1  0  0  0
  4  5  2  0  0  0
  4  6  1  0  0  0
  6  7  2  0  0  0
  6 24  1  0  0  0
  7  8  1  0  0  0
  7 25  1  0  0  0
  8  9  1  0  0  0
  9 10  1  0  0  0
  9 11  1  0  0  0
  9 26  1  0  0  0
 10 15  1  0  0  0
 11 12  1  0  0  0
 11 13  1  0  0  0
 11 27  1  0  0  0
 12 28  1  0  0  0
 13 14  1  0  0  0
 13 15  1  0  0  0
 13 29  1  0  0  0
 14 30  1  0  0  0
 15 16  1  0  0  0
 15 31  1  0  0  0
 16 17  1  0  0  0
 16 32  1  0  0  0
 16 33  1  0  0  0
 17 18  1  0  0  0
 17 34  1  0  0  0
 18 19  2  0  0  0
 18 20  1  0  0  0
 20 21  1  0  0  0
 20 22  1  0  0  0
 20 35  1  0  0  0
 21 36  1  0  0  0
 21 37  1  0  0  0
 21 38  1  0  0  0
 22 39  1  0  0  0
 22 40  1  0  0  0
 22 41  1  0  0  0
M  CHG  1  21   1
M  END
> <s_m_source_file>
../4y64_ligand.sdf

> <i_m_source_file_index>
1

> <s_epik_input>
Tz1jMVtuSF1jKD1PKVtjSF1bY0hdbjFbQ0BASF0yT1tDQEBIXShbQ0BASF0oW09IXSlbQ0BIXTJbT0hdKVtDSDJdW05IXUMoPU8pW0NASF0oW05IMytdKVtDSDNd

> <s_epik_cmdline>
J2VwaWtfYXBwJywgJy1pbWFlJywgJ2xpZ2FuZF9wcm8ubWFlJywgJy1vbWFlJywgJ2xpZ2FuZF9wcmVwLm1hZScsICctbXMnLCAnMScsICctcGgnLCAnNycsICctcGh0JywgJzAuNScsICctbnQn

> <r_lp_tautomer_probability>
0.999537046341301

> <r_epik_Ionization_Penalty>
  0.1225

> <r_epik_Ionization_Penalty_Charging>
  0.1225

> <r_epik_Ionization_Penalty_Neutral>
  0.0000

> <r_epik_State_Penalty>
  0.1094

> <r_epik_Charging_Adjusted_Penalty>
0.231956348266875

> <i_epik_Tot_Q>
1

> <i_epik_Tot_abs_Q>
1

> <s_epik_Chemistry_Notes>
This compound contains an acetal/aminal-like group ( X-CH(R)-Y where X, Y are N, S, or O) that may be acid/base labile, releasing an aldehyde.

$$$$
