4y67_ligand
                    3D
 Schrodinger Suite 2020-3.
 42 42  0  0  1  0            999 V2000
    3.7090   15.0040   20.6260 O   0  0  0  0  0  0
    3.3330   13.9200   20.1580 C   0  0  0  0  0  0
    3.9130   13.4090   19.0720 N   0  0  0  0  0  0
    4.9780   14.0710   18.4650 O   0  0  0  0  0  0
    3.5200   12.1350   18.4690 C   0  0  0  0  0  0
    2.1160   13.3170   20.7740 C   0  0  0  0  0  0
    0.9050   14.0830   20.2060 C   0  0  2  0  0  0
   -0.1780   14.1910   21.2790 C   0  0  0  0  0  0
   -0.8830   15.8730   21.3710 P   0  0  0  0  0  0
   -0.0280   16.7680   22.2390 O   0  5  0  0  0  0
   -2.2840   15.7450   21.9600 O   0  0  0  0  0  0
   -1.0610   16.4560   20.0420 O   0  0  0  0  0  0
    0.3780   13.4640   18.8760 C   0  0  0  0  0  0
   -0.1060   11.9970   18.9820 C   0  0  0  0  0  0
   -0.5500   11.4290   17.6120 C   0  0  0  0  0  0
    0.6420   11.0630   16.7580 C   0  0  0  0  0  0
    1.4080    9.9350   17.0700 C   0  0  0  0  0  0
    2.5170    9.6170   16.3100 C   0  0  0  0  0  0
    2.8600   10.4170   15.2200 C   0  0  0  0  0  0
    2.1120   11.5440   14.9100 C   0  0  0  0  0  0
    0.9980   11.8700   15.6650 C   0  0  0  0  0  0
    5.3270   15.0342   18.8655 H   0  0  0  0  0  0
    2.6752   11.7089   19.0301 H   0  0  0  0  0  0
    4.3698   11.4372   18.4997 H   0  0  0  0  0  0
    3.2196   12.3012   17.4239 H   0  0  0  0  0  0
    2.0622   12.2502   20.5111 H   0  0  0  0  0  0
    2.1677   13.4229   21.8677 H   0  0  0  0  0  0
    1.2245   15.1057   19.9569 H   0  0  0  0  0  0
   -0.9929   13.4888   21.0494 H   0  0  0  0  0  0
    0.2526   13.9446   22.2608 H   0  0  0  0  0  0
   -2.4207   15.3267   22.9681 H   0  0  0  0  0  0
   -0.4774   14.0518   18.5117 H   0  0  0  0  0  0
    1.1794   13.4771   18.1226 H   0  0  0  0  0  0
    0.7113   11.3680   19.3647 H   0  0  0  0  0  0
   -0.9632   11.9424   19.6692 H   0  0  0  0  0  0
   -1.1586   10.5263   17.7692 H   0  0  0  0  0  0
   -1.1452   12.1840   17.0775 H   0  0  0  0  0  0
    1.1292    9.3053   17.9149 H   0  0  0  0  0  0
    3.1211    8.7451   16.5609 H   0  0  0  0  0  0
    3.7223   10.1549   14.6070 H   0  0  0  0  0  0
    2.4023   12.1745   14.0696 H   0  0  0  0  0  0
    0.4015   12.7468   15.4128 H   0  0  0  0  0  0
  1  2  2  0  0  0
  2  3  1  0  0  0
  2  6  1  0  0  0
  3  4  1  0  0  0
  3  5  1  0  0  0
  4 22  1  0  0  0
  5 23  1  0  0  0
  5 24  1  0  0  0
  5 25  1  0  0  0
  6  7  1  0  0  0
  6 26  1  0  0  0
  6 27  1  0  0  0
  7  8  1  0  0  0
  7 13  1  0  0  0
  7 28  1  0  0  0
  8  9  1  0  0  0
  8 29  1  0  0  0
  8 30  1  0  0  0
  9 10  1  0  0  0
  9 11  1  0  0  0
  9 12  2  0  0  0
 11 31  1  0  0  0
 13 14  1  0  0  0
 13 32  1  0  0  0
 13 33  1  0  0  0
 14 15  1  0  0  0
 14 34  1  0  0  0
 14 35  1  0  0  0
 15 16  1  0  0  0
 15 36  1  0  0  0
 15 37  1  0  0  0
 16 17  2  0  0  0
 16 21  1  0  0  0
 17 18  1  0  0  0
 17 38  1  0  0  0
 18 19  2  0  0  0
 18 39  1  0  0  0
 19 20  1  0  0  0
 19 40  1  0  0  0
 20 21  2  0  0  0
 20 41  1  0  0  0
 21 42  1  0  0  0
M  CHG  1  10  -1
M  END
> <s_m_source_file>
../4y67_ligand.sdf

> <i_m_source_file_index>
1

> <s_epik_input>
W09IXU4oW0NIM10pQyg9TylbQ0gyXVtDQEhdKFtDSDJdUCg9TykoW09IXSlbT0hdKVtDSDJdW0NIMl1bQ0gyXWMxW2NIXVtjSF1bY0hdW2NIXVtjSF0x

> <s_epik_cmdline>
J2VwaWtfYXBwJywgJy1pbWFlJywgJ2xpZ2FuZF9wcm8ubWFlJywgJy1vbWFlJywgJ2xpZ2FuZF9wcmVwLm1hZScsICctbXMnLCAnMScsICctcGgnLCAnNycsICctcGh0JywgJzAuNScsICctbnQn

> <r_epik_Ionization_Penalty>
  0.0884

> <r_epik_Ionization_Penalty_Charging>
  0.0000

> <r_epik_Ionization_Penalty_Neutral>
  0.0883

> <r_epik_State_Penalty>
  0.0751

> <r_epik_Charging_Adjusted_Penalty>
0.0750708374198248

> <i_epik_Tot_Q>
-1

> <i_epik_Tot_abs_Q>
1

> <s_epik_Chemistry_Notes>
This compound has a N-S or N-O group and may undergo hydrolysis at high or low pH.

$$$$
