4y6m_ligand
                    3D
 Schrodinger Suite 2020-3.
100103  0  0  1  0            999 V2000
   29.5060  -33.3120  -37.7150 O   0  0  0  0  0  0
   29.6730  -32.2660  -37.1360 C   0  0  0  0  0  0
   29.2030  -32.1660  -35.7100 C   0  0  0  0  0  0
   29.2840  -33.2840  -34.8880 C   0  0  0  0  0  0
   28.7000  -30.9750  -35.1970 C   0  0  0  0  0  0
   28.2740  -30.9150  -33.8700 C   0  0  0  0  0  0
   27.7290  -29.6120  -33.3580 C   0  0  0  0  0  0
   26.4060  -29.4450  -33.2530 N   0  0  0  0  0  0
   25.8510  -28.2520  -32.6120 C   0  0  0  0  0  0
   25.3660  -28.6310  -31.2090 C   0  0  0  0  0  0
   26.3190  -28.2210  -30.1100 C   0  0  0  0  0  0
   25.4690  -30.4490  -33.7660 C   0  0  0  0  0  0
   24.1200  -29.8180  -34.1000 C   0  0  0  0  0  0
   24.1080  -29.1040  -35.4370 C   0  0  0  0  0  0
   28.5090  -28.7190  -33.0860 O   0  0  0  0  0  0
   28.3590  -32.0410  -33.0440 C   0  0  0  0  0  0
   28.8620  -33.2280  -33.5610 C   0  0  0  0  0  0
   28.9690  -34.3940  -32.7790 N   0  0  0  0  0  0
   30.2180  -34.6190  -32.0510 C   0  0  0  0  0  0
   29.9170  -35.2960  -30.7230 C   0  0  0  0  0  0
   28.9560  -36.4660  -30.8750 C   0  0  0  0  0  0
   27.6430  -35.9360  -31.4300 C   0  0  0  0  0  0
   27.8610  -35.3560  -32.8170 C   0  0  0  0  0  0
   30.2750  -31.2340  -37.7230 N   0  0  0  0  0  0
   30.4710  -31.1340  -39.0400 C   0  0  0  0  0  0
   29.4760  -30.7530  -39.8640 C   0  0  0  0  0  0
   28.0990  -30.5240  -39.3570 C   0  0  0  0  0  0
   27.0920  -31.4030  -39.7760 C   0  0  0  0  0  0
   25.7870  -31.2560  -39.3160 C   0  0  0  0  0  0
   25.4830  -30.2330  -38.4280 C   0  0  0  0  0  0
   26.4840  -29.3590  -38.0050 C   0  0  0  0  0  0
   27.7920  -29.5040  -38.4680 C   0  0  0  0  0  0
   31.8680  -31.3780  -39.5680 C   0  0  2  0  0  0
   31.8580  -31.5320  -40.9890 O   0  0  0  0  0  0
   32.4590  -32.6710  -39.0360 C   0  0  0  0  0  0
   33.9340  -32.5700  -38.9160 N   0  3  0  0  0  0
   34.6050  -33.8950  -38.8390 C   0  0  0  0  0  0
   36.1080  -33.6860  -38.7210 C   0  0  0  0  0  0
   34.2830  -34.7540  -40.0660 C   0  0  0  0  0  0
   34.1300  -34.6440  -37.6260 C   0  0  0  0  0  0
   33.7230  -33.9400  -36.5080 C   0  0  0  0  0  0
   33.2610  -34.6110  -35.4080 C   0  0  0  0  0  0
   33.2300  -36.0010  -35.3750 C   0  0  0  0  0  0
   33.6510  -36.7100  -36.4890 C   0  0  0  0  0  0
   34.1020  -36.0330  -37.6160 C   0  0  0  0  0  0
   32.8400  -33.8510  -34.3650 O   0  0  0  0  0  0
   33.7820  -33.3070  -33.4750 C   0  0  0  0  0  0
   29.6829  -34.2168  -35.2866 H   0  0  0  0  0  0
   28.6388  -30.0902  -35.8307 H   0  0  0  0  0  0
   26.6291  -27.4776  -32.5425 H   0  0  0  0  0  0
   25.0087  -27.8730  -33.2094 H   0  0  0  0  0  0
   24.4023  -28.1398  -31.0091 H   0  0  0  0  0  0
   25.2414  -29.7221  -31.1464 H   0  0  0  0  0  0
   25.9074  -28.5238  -29.1359 H   0  0  0  0  0  0
   26.4520  -27.1292  -30.1285 H   0  0  0  0  0  0
   27.2912  -28.7115  -30.2658 H   0  0  0  0  0  0
   25.8817  -30.9031  -34.6790 H   0  0  0  0  0  0
   25.3150  -31.2291  -33.0059 H   0  0  0  0  0  0
   23.3478  -30.6006  -34.1350 H   0  0  0  0  0  0
   23.8591  -29.0798  -33.3274 H   0  0  0  0  0  0
   23.1110  -28.6745  -35.6144 H   0  0  0  0  0  0
   24.3465  -29.8201  -36.2372 H   0  0  0  0  0  0
   24.8579  -28.2993  -35.4296 H   0  0  0  0  0  0
   28.0337  -31.9873  -32.0051 H   0  0  0  0  0  0
   30.8799  -35.2629  -32.6487 H   0  0  0  0  0  0
   30.7137  -33.6545  -31.8664 H   0  0  0  0  0  0
   30.8515  -35.6778  -30.2860 H   0  0  0  0  0  0
   29.4611  -34.5683  -30.0355 H   0  0  0  0  0  0
   29.3861  -37.2064  -31.5655 H   0  0  0  0  0  0
   28.7894  -36.9336  -29.8934 H   0  0  0  0  0  0
   26.9132  -36.7567  -31.4918 H   0  0  0  0  0  0
   27.2551  -35.1495  -30.7660 H   0  0  0  0  0  0
   26.9443  -34.8465  -33.1487 H   0  0  0  0  0  0
   28.1038  -36.1675  -33.5188 H   0  0  0  0  0  0
   30.6458  -30.3953  -37.1155 H   0  0  0  0  0  0
   29.6755  -30.6054  -40.9357 H   0  0  0  0  0  0
   27.3329  -32.2094  -40.4686 H   0  0  0  0  0  0
   25.0076  -31.9404  -39.6511 H   0  0  0  0  0  0
   24.4633  -30.1131  -38.0619 H   0  0  0  0  0  0
   26.2427  -28.5568  -37.3076 H   0  0  0  0  0  0
   28.5701  -28.8183  -38.1325 H   0  0  0  0  0  0
   32.4673  -30.4945  -39.3029 H   0  0  0  0  0  0
   31.4719  -30.7235  -41.6271 H   0  0  0  0  0  0
   32.0377  -32.8853  -38.0427 H   0  0  0  0  0  0
   32.2161  -33.4951  -39.7229 H   0  0  0  0  0  0
   34.3379  -32.0424  -39.7926 H   0  0  0  0  0  0
   34.1903  -32.0131  -38.0027 H   0  0  0  0  0  0
   36.4723  -33.1382  -39.6026 H   0  0  0  0  0  0
   36.6105  -34.6628  -38.6627 H   0  0  0  0  0  0
   36.3273  -33.1060  -37.8124 H   0  0  0  0  0  0
   34.6184  -34.2343  -40.9756 H   0  0  0  0  0  0
   33.1976  -34.9240  -40.1199 H   0  0  0  0  0  0
   34.8019  -35.7204  -39.9834 H   0  0  0  0  0  0
   33.7700  -32.8510  -36.5024 H   0  0  0  0  0  0
   32.8797  -36.5252  -34.4859 H   0  0  0  0  0  0
   33.6284  -37.7997  -36.4813 H   0  0  0  0  0  0
   34.4335  -36.5915  -38.4914 H   0  0  0  0  0  0
   33.2611  -32.7256  -32.7000 H   0  0  0  0  0  0
   34.4701  -32.6493  -34.0263 H   0  0  0  0  0  0
   34.3520  -34.1203  -33.0021 H   0  0  0  0  0  0
  1  2  2  0  0  0
  2  3  1  0  0  0
  2 24  1  0  0  0
  3  4  2  0  0  0
  3  5  1  0  0  0
  4 17  1  0  0  0
  4 48  1  0  0  0
  5  6  2  0  0  0
  5 49  1  0  0  0
  6  7  1  0  0  0
  6 16  1  0  0  0
  7  8  1  0  0  0
  7 15  2  0  0  0
  8  9  1  0  0  0
  8 12  1  0  0  0
  9 10  1  0  0  0
  9 50  1  0  0  0
  9 51  1  0  0  0
 10 11  1  0  0  0
 10 52  1  0  0  0
 10 53  1  0  0  0
 11 54  1  0  0  0
 11 55  1  0  0  0
 11 56  1  0  0  0
 12 13  1  0  0  0
 12 57  1  0  0  0
 12 58  1  0  0  0
 13 14  1  0  0  0
 13 59  1  0  0  0
 13 60  1  0  0  0
 14 61  1  0  0  0
 14 62  1  0  0  0
 14 63  1  0  0  0
 16 17  2  0  0  0
 16 64  1  0  0  0
 17 18  1  0  0  0
 18 19  1  0  0  0
 18 23  1  0  0  0
 19 20  1  0  0  0
 19 65  1  0  0  0
 19 66  1  0  0  0
 20 21  1  0  0  0
 20 67  1  0  0  0
 20 68  1  0  0  0
 21 22  1  0  0  0
 21 69  1  0  0  0
 21 70  1  0  0  0
 22 23  1  0  0  0
 22 71  1  0  0  0
 22 72  1  0  0  0
 23 73  1  0  0  0
 23 74  1  0  0  0
 24 25  1  0  0  0
 24 75  1  0  0  0
 25 26  2  0  0  0
 25 33  1  0  0  0
 26 27  1  0  0  0
 26 76  1  0  0  0
 27 28  2  0  0  0
 27 32  1  0  0  0
 28 29  1  0  0  0
 28 77  1  0  0  0
 29 30  2  0  0  0
 29 78  1  0  0  0
 30 31  1  0  0  0
 30 79  1  0  0  0
 31 32  2  0  0  0
 31 80  1  0  0  0
 32 81  1  0  0  0
 33 34  1  0  0  0
 33 35  1  0  0  0
 33 82  1  0  0  0
 34 83  1  0  0  0
 35 36  1  0  0  0
 35 84  1  0  0  0
 35 85  1  0  0  0
 36 37  1  0  0  0
 36 86  1  0  0  0
 36 87  1  0  0  0
 37 38  1  0  0  0
 37 39  1  0  0  0
 37 40  1  0  0  0
 38 88  1  0  0  0
 38 89  1  0  0  0
 38 90  1  0  0  0
 39 91  1  0  0  0
 39 92  1  0  0  0
 39 93  1  0  0  0
 40 41  2  0  0  0
 40 45  1  0  0  0
 41 42  1  0  0  0
 41 94  1  0  0  0
 42 43  2  0  0  0
 42 46  1  0  0  0
 43 44  1  0  0  0
 43 95  1  0  0  0
 44 45  2  0  0  0
 44 96  1  0  0  0
 45 97  1  0  0  0
 46 47  1  0  0  0
 47 98  1  0  0  0
 47 99  1  0  0  0
 47100  1  0  0  0
M  CHG  1  36   1
M  END
> <s_m_source_file>
../4y6m_ligand.sdf

> <i_m_source_file_index>
1

> <s_epik_input>
W0NIM11bQ0gyXVtDSDJdTihbQ0gyXVtDSDJdW0NIM10pQyg9TyljKFtjSF0xKVtjSF1jKE4yW0NIMl1bQ0gyXVtDSDJdW0NIMl1bQ0gyXTIpW2NIXWMxQyg9TylbTkhdL0MoPVtDSF1cYzNbY0hdW2NIXVtjSF1bY0hdW2NIXTMpW0NASF0oW09IXSlbQ0gyXVtOSDIrXUMoW0NIM10pKFtDSDNdKWM0W2NIXWMoT1tDSDNdKVtjSF1bY0hdW2NIXTQ=

> <s_epik_cmdline>
J2VwaWtfYXBwJywgJy1pbWFlJywgJ2xpZ2FuZF9wcm8ubWFlJywgJy1vbWFlJywgJ2xpZ2FuZF9wcmVwLm1hZScsICctbXMnLCAnMScsICctcGgnLCAnNycsICctcGh0JywgJzAuNScsICctbnQn

> <r_lp_tautomer_probability>
1

> <r_epik_Ionization_Penalty>
  0.0127

> <r_epik_Ionization_Penalty_Charging>
  0.0121

> <r_epik_Ionization_Penalty_Neutral>
  0.0006

> <r_epik_State_Penalty>
  0.0093

> <r_epik_Charging_Adjusted_Penalty>
0.0214222202629595

> <i_epik_Tot_Q>
1

> <i_epik_Tot_abs_Q>
1

$$$$
