4y6p_ligand
                    3D
 Schrodinger Suite 2020-3.
 45 45  0  0  1  0            999 V2000
   -1.8900   15.3690   22.0120 O   0  5  0  0  0  0
   -0.8050   15.8870   21.0720 P   0  0  0  0  0  0
   -1.1430   15.7410   19.6110 O   0  0  0  0  0  0
   -0.3720   17.2860   21.3980 O   0  0  0  0  0  0
    0.6270   14.8330   21.4120 C   0  0  0  0  0  0
    0.7190   13.5820   20.5430 C   0  0  1  0  0  0
    2.0840   12.9420   20.7550 C   0  0  0  0  0  0
    3.2010   13.6930   20.0610 C   0  0  0  0  0  0
    3.6670   13.2370   18.8980 N   0  0  0  0  0  0
    4.6200   14.0340   18.2350 O   0  0  0  0  0  0
    3.2770   11.9870   18.2580 C   0  0  0  0  0  0
    3.6730   14.6770   20.5940 O   0  0  0  0  0  0
   -0.3440   12.5740   20.9660 C   0  0  0  0  0  0
   -0.3810   11.3480   20.0550 C   0  0  0  0  0  0
   -1.1310   11.6330   18.7550 C   0  0  0  0  0  0
   -1.0750   10.4640   17.7620 C   0  0  0  0  0  0
    0.1940   10.3760   16.9240 C   0  0  0  0  0  0
    0.4780   11.2920   15.9160 C   0  0  0  0  0  0
    1.6440   11.1700   15.1590 C   0  0  0  0  0  0
    2.5220   10.1170   15.3860 C   0  0  0  0  0  0
    2.2270    9.1870   16.3770 C   0  0  0  0  0  0
    1.0700    9.3240   17.1350 C   0  0  0  0  0  0
   -1.9892   16.2991   19.1838 H   0  0  0  0  0  0
    1.5514   15.4051   21.2443 H   0  0  0  0  0  0
    0.5914   14.4920   22.4572 H   0  0  0  0  0  0
    0.5718   13.8602   19.4890 H   0  0  0  0  0  0
    2.3144   12.9174   21.8303 H   0  0  0  0  0  0
    2.0734   11.9159   20.3587 H   0  0  0  0  0  0
    4.9455   14.9862   18.6793 H   0  0  0  0  0  0
    2.5322   11.4721   18.8826 H   0  0  0  0  0  0
    4.1620   11.3448   18.1380 H   0  0  0  0  0  0
    2.8425   12.2008   17.2703 H   0  0  0  0  0  0
   -0.1360   12.2297   21.9898 H   0  0  0  0  0  0
   -1.3348   13.0506   20.9337 H   0  0  0  0  0  0
    0.6467   11.0472   19.8031 H   0  0  0  0  0  0
   -0.8884   10.5211   20.5734 H   0  0  0  0  0  0
   -2.1897   11.8313   18.9784 H   0  0  0  0  0  0
   -0.6895   12.5117   18.2620 H   0  0  0  0  0  0
   -1.1515    9.5134   18.3101 H   0  0  0  0  0  0
   -1.9109   10.5459   17.0517 H   0  0  0  0  0  0
   -0.2144   12.1098   15.7164 H   0  0  0  0  0  0
    1.8673   11.9047   14.3854 H   0  0  0  0  0  0
    3.4320   10.0210   14.7937 H   0  0  0  0  0  0
    2.9026    8.3513   16.5592 H   0  0  0  0  0  0
    0.8479    8.5901   17.9097 H   0  0  0  0  0  0
  1  2  1  0  0  0
  2  3  1  0  0  0
  2  4  2  0  0  0
  2  5  1  0  0  0
  3 23  1  0  0  0
  5  6  1  0  0  0
  5 24  1  0  0  0
  5 25  1  0  0  0
  6  7  1  0  0  0
  6 13  1  0  0  0
  6 26  1  0  0  0
  7  8  1  0  0  0
  7 27  1  0  0  0
  7 28  1  0  0  0
  8  9  1  0  0  0
  8 12  2  0  0  0
  9 10  1  0  0  0
  9 11  1  0  0  0
 10 29  1  0  0  0
 11 30  1  0  0  0
 11 31  1  0  0  0
 11 32  1  0  0  0
 13 14  1  0  0  0
 13 33  1  0  0  0
 13 34  1  0  0  0
 14 15  1  0  0  0
 14 35  1  0  0  0
 14 36  1  0  0  0
 15 16  1  0  0  0
 15 37  1  0  0  0
 15 38  1  0  0  0
 16 17  1  0  0  0
 16 39  1  0  0  0
 16 40  1  0  0  0
 17 18  2  0  0  0
 17 22  1  0  0  0
 18 19  1  0  0  0
 18 41  1  0  0  0
 19 20  2  0  0  0
 19 42  1  0  0  0
 20 21  1  0  0  0
 20 43  1  0  0  0
 21 22  2  0  0  0
 21 44  1  0  0  0
 22 45  1  0  0  0
M  CHG  1   1  -1
M  END
> <s_m_source_file>
../4y6p_ligand.sdf

> <i_m_source_file_index>
1

> <s_epik_input>
W09IXU4oW0NIM10pQyg9TylbQ0gyXVtDQEhdKFtDSDJdUCg9TykoW09IXSlbT0hdKVtDSDJdW0NIMl1bQ0gyXVtDSDJdYzFbY0hdW2NIXVtjSF1bY0hdW2NIXTE=

> <s_epik_cmdline>
J2VwaWtfYXBwJywgJy1pbWFlJywgJ2xpZ2FuZF9wcm8ubWFlJywgJy1vbWFlJywgJ2xpZ2FuZF9wcmVwLm1hZScsICctbXMnLCAnMScsICctcGgnLCAnNycsICctcGh0JywgJzAuNScsICctbnQn

> <r_epik_Ionization_Penalty>
  0.0874

> <r_epik_Ionization_Penalty_Charging>
  0.0000

> <r_epik_Ionization_Penalty_Neutral>
  0.0874

> <r_epik_State_Penalty>
  0.0742

> <r_epik_Charging_Adjusted_Penalty>
0.0742149469161039

> <i_epik_Tot_Q>
-1

> <i_epik_Tot_abs_Q>
1

> <s_epik_Chemistry_Notes>
This compound has a N-S or N-O group and may undergo hydrolysis at high or low pH.

$$$$
