4y6r_ligand
                    3D
 Schrodinger Suite 2020-3.
 33 33  0  0  1  0            999 V2000
    0.3340   15.3960   23.1770 O   0  5  0  0  0  0
   -0.5340   14.6220   22.2160 P   0  0  0  0  0  0
   -1.7420   14.0970   22.9330 O   0  0  0  0  0  0
   -0.9940   15.5250   21.0900 O   0  0  0  0  0  0
    0.3580   13.2240   21.4690 C   0  0  0  0  0  0
    1.2440   12.4450   22.4410 C   0  0  2  0  0  0
    2.2900   11.6700   21.6390 C   0  0  0  0  0  0
    3.3860   12.5130   21.0220 C   0  0  0  0  0  0
    3.9970   12.0910   19.9120 N   0  0  0  0  0  0
    5.0030   12.8710   19.3520 O   0  0  0  0  0  0
    3.6190   10.8420   19.2620 C   0  0  0  0  0  0
    3.7420   13.5670   21.5340 O   0  0  0  0  0  0
    0.4880   11.4120   23.2240 C   0  0  0  0  0  0
   -0.7930   11.0050   22.8670 C   0  0  0  0  0  0
   -1.4480   10.0270   23.6110 C   0  0  0  0  0  0
   -0.8270    9.4430   24.7080 C   0  0  0  0  0  0
    0.4520    9.8380   25.0610 C   0  0  0  0  0  0
    1.1040   10.8150   24.3220 C   0  0  0  0  0  0
   -1.5595   16.4411   21.3157 H   0  0  0  0  0  0
   -0.3656   12.5081   21.0520 H   0  0  0  0  0  0
    1.0125   13.5937   20.6659 H   0  0  0  0  0  0
    1.6675   13.1762   23.1452 H   0  0  0  0  0  0
    2.7883   10.9407   22.2946 H   0  0  0  0  0  0
    1.7981   11.1411   20.8094 H   0  0  0  0  0  0
    5.2981   13.8157   19.8321 H   0  0  0  0  0  0
    2.8147   10.3587   19.8360 H   0  0  0  0  0  0
    4.4911   10.1730   19.2180 H   0  0  0  0  0  0
    3.2660   11.0519   18.2415 H   0  0  0  0  0  0
   -1.2851   11.4523   22.0034 H   0  0  0  0  0  0
   -2.4549    9.7175   23.3308 H   0  0  0  0  0  0
   -1.3439    8.6781   25.2875 H   0  0  0  0  0  0
    0.9465    9.3820   25.9187 H   0  0  0  0  0  0
    2.1118   11.1195   24.6043 H   0  0  0  0  0  0
  1  2  1  0  0  0
  2  3  2  0  0  0
  2  4  1  0  0  0
  2  5  1  0  0  0
  4 19  1  0  0  0
  5  6  1  0  0  0
  5 20  1  0  0  0
  5 21  1  0  0  0
  6  7  1  0  0  0
  6 13  1  0  0  0
  6 22  1  0  0  0
  7  8  1  0  0  0
  7 23  1  0  0  0
  7 24  1  0  0  0
  8  9  1  0  0  0
  8 12  2  0  0  0
  9 10  1  0  0  0
  9 11  1  0  0  0
 10 25  1  0  0  0
 11 26  1  0  0  0
 11 27  1  0  0  0
 11 28  1  0  0  0
 13 14  2  0  0  0
 13 18  1  0  0  0
 14 15  1  0  0  0
 14 29  1  0  0  0
 15 16  2  0  0  0
 15 30  1  0  0  0
 16 17  1  0  0  0
 16 31  1  0  0  0
 17 18  2  0  0  0
 17 32  1  0  0  0
 18 33  1  0  0  0
M  CHG  1   1  -1
M  END
> <s_m_source_file>
../4y6r_ligand.sdf

> <i_m_source_file_index>
1

> <s_epik_input>
W09IXU4oW0NIM10pQyg9TylbQ0gyXVtDQEBIXShbQ0gyXVAoPU8pKFtPSF0pW09IXSljMVtjSF1bY0hdW2NIXVtjSF1bY0hdMQ==

> <s_epik_cmdline>
J2VwaWtfYXBwJywgJy1pbWFlJywgJ2xpZ2FuZF9wcm8ubWFlJywgJy1vbWFlJywgJ2xpZ2FuZF9wcmVwLm1hZScsICctbXMnLCAnMScsICctcGgnLCAnNycsICctcGh0JywgJzAuNScsICctbnQn

> <r_epik_Ionization_Penalty>
  0.1218

> <r_epik_Ionization_Penalty_Charging>
  0.0000

> <r_epik_Ionization_Penalty_Neutral>
  0.1218

> <r_epik_State_Penalty>
  0.1063

> <r_epik_Charging_Adjusted_Penalty>
0.106267689694375

> <i_epik_Tot_Q>
-1

> <i_epik_Tot_abs_Q>
1

> <s_epik_Chemistry_Notes>
This compound has a N-S or N-O group and may undergo hydrolysis at high or low pH.

$$$$
