4y6s_ligand
                    3D
 Schrodinger Suite 2020-3.
 36 36  0  0  1  0            999 V2000
    3.4690   10.9700   19.2250 C   0  0  0  0  0  0
    0.4280   11.6200   23.0800 C   0  0  0  0  0  0
    0.9630   10.9720   24.1940 C   0  0  0  0  0  0
   -0.8050   11.2230   22.5920 C   0  0  0  0  0  0
   -1.5210   10.2140   23.2310 C   0  0  0  0  0  0
   -1.7490   14.1240   22.7670 O   0  0  0  0  0  0
   -0.5550   14.7350   22.0820 P   0  0  0  0  0  0
   -1.0330   15.6940   21.0100 O   0  5  0  0  0  0
    0.2780   15.5000   23.0780 O   0  0  0  0  0  0
    0.4240   13.4350   21.3260 C   0  0  0  0  0  0
    1.2130   12.6560   22.3740 C   0  0  2  0  0  0
    2.2570   11.8360   21.6270 C   0  0  0  0  0  0
    3.3280   12.6620   20.9670 C   0  0  0  0  0  0
    3.8920   12.2260   19.8370 N   0  0  0  0  0  0
    4.8920   12.9580   19.2090 O   0  0  0  0  0  0
    3.6770   13.7040   21.4850 O   0  0  0  0  0  0
   -0.9980    9.5810   24.3550 C   0  0  0  0  0  0
   -1.7800    8.4910   25.0390 C   0  0  0  0  0  0
    0.2490    9.9610   24.8370 C   0  0  0  0  0  0
    2.6769   10.5128   19.8362 H   0  0  0  0  0  0
    4.3271   10.2844   19.1643 H   0  0  0  0  0  0
    3.0843   11.1664   18.2133 H   0  0  0  0  0  0
    1.9472   11.2583   24.5648 H   0  0  0  0  0  0
   -1.2171   11.7021   21.7039 H   0  0  0  0  0  0
   -2.4977    9.9178   22.8484 H   0  0  0  0  0  0
   -0.1650   16.3368   23.6379 H   0  0  0  0  0  0
   -0.2406   12.7361   20.7969 H   0  0  0  0  0  0
    1.1333   13.8784   20.6117 H   0  0  0  0  0  0
    1.5727   13.3870   23.1131 H   0  0  0  0  0  0
    2.7596   11.1549   22.3295 H   0  0  0  0  0  0
    1.7659   11.2501   20.8361 H   0  0  0  0  0  0
    5.3457   12.5844   18.2792 H   0  0  0  0  0  0
   -2.7332    8.3376   24.5119 H   0  0  0  0  0  0
   -1.9798    8.7817   26.0809 H   0  0  0  0  0  0
   -1.1982    7.5576   25.0238 H   0  0  0  0  0  0
    0.6680    9.4701   25.7154 H   0  0  0  0  0  0
  1 14  1  0  0  0
  1 20  1  0  0  0
  1 21  1  0  0  0
  1 22  1  0  0  0
  2  3  2  0  0  0
  2  4  1  0  0  0
  2 11  1  0  0  0
  3 19  1  0  0  0
  3 23  1  0  0  0
  4  5  2  0  0  0
  4 24  1  0  0  0
  5 17  1  0  0  0
  5 25  1  0  0  0
  6  7  2  0  0  0
  7  8  1  0  0  0
  7  9  1  0  0  0
  7 10  1  0  0  0
  9 26  1  0  0  0
 10 11  1  0  0  0
 10 27  1  0  0  0
 10 28  1  0  0  0
 11 12  1  0  0  0
 11 29  1  0  0  0
 12 13  1  0  0  0
 12 30  1  0  0  0
 12 31  1  0  0  0
 13 14  1  0  0  0
 13 16  2  0  0  0
 14 15  1  0  0  0
 15 32  1  0  0  0
 17 18  1  0  0  0
 17 19  2  0  0  0
 18 33  1  0  0  0
 18 34  1  0  0  0
 18 35  1  0  0  0
 19 36  1  0  0  0
M  CHG  1   8  -1
M  END
> <s_m_source_file>
../4y6s_ligand.sdf

> <i_m_source_file_index>
1

> <s_epik_input>
W0NIM11OKFtPSF0pQyg9TylbQ0gyXVtDQEBIXShbQ0gyXVAoPU8pKFtPSF0pW09IXSljMVtjSF1bY0hdYyhbQ0gzXSlbY0hdW2NIXTE=

> <s_epik_cmdline>
J2VwaWtfYXBwJywgJy1pbWFlJywgJ2xpZ2FuZF9wcm8ubWFlJywgJy1vbWFlJywgJ2xpZ2FuZF9wcmVwLm1hZScsICctbXMnLCAnMScsICctcGgnLCAnNycsICctcGh0JywgJzAuNScsICctbnQn

> <r_epik_Ionization_Penalty>
  0.1219

> <r_epik_Ionization_Penalty_Charging>
  0.0000

> <r_epik_Ionization_Penalty_Neutral>
  0.1218

> <r_epik_State_Penalty>
  0.1063

> <r_epik_Charging_Adjusted_Penalty>
0.106267689694375

> <i_epik_Tot_Q>
-1

> <i_epik_Tot_abs_Q>
1

> <s_epik_Chemistry_Notes>
This compound has a N-S or N-O group and may undergo hydrolysis at high or low pH.

$$$$
