4y73_ligand
                    3D
 Schrodinger Suite 2020-3.
 52 55  0  0  1  0            999 V2000
   33.3450    8.1620  -11.7200 C   0  0  0  0  0  0
   32.8450    9.4280  -11.5800 C   0  0  0  0  0  0
   31.8200    9.6160  -10.5870 C   0  0  0  0  0  0
   28.0290    7.1240   -4.5260 N   0  0  0  0  0  0
   29.3950   13.6470   -7.6080 C   0  0  0  0  0  0
   30.2900   12.5470   -7.0070 C   0  0  0  0  0  0
   31.2320   11.9510   -8.0540 C   0  0  1  0  0  0
   32.4680    5.2850   -9.9130 C   0  0  0  0  0  0
   31.5510    6.1680   -9.3150 C   0  0  0  0  0  0
   30.6380    5.7810   -8.2110 C   0  0  0  0  0  0
   29.2580    6.6290   -6.3460 C   0  0  0  0  0  0
   28.6670    7.6430   -5.5650 C   0  0  0  0  0  0
   28.7450    9.1240   -5.8130 C   0  0  0  0  0  0
   27.6860    4.9060   -3.5710 C   0  0  0  0  0  0
   27.9560    9.5010   -6.7940 F   0  0  0  0  0  0
   28.4060    9.8370   -4.7510 F   0  0  0  0  0  0
   29.9650    9.5120   -6.1440 F   0  0  0  0  0  0
   28.2090    5.7820   -4.6230 N   0  0  0  0  0  0
   28.9280    5.4280   -5.6930 C   0  0  0  0  0  0
   30.1000    6.8020   -7.4730 N   0  0  0  0  0  0
   30.4420    4.5930   -7.9650 O   0  0  0  0  0  0
   31.7940    7.4260   -9.9640 C   0  0  0  0  0  0
   33.2340    5.8920  -10.8490 N   0  0  0  0  0  0
   32.8180    7.1660  -10.8850 N   0  0  0  0  0  0
   31.2830    8.6520   -9.7860 N   0  0  0  0  0  0
   31.2990   11.0130  -10.4720 N   0  0  0  0  0  0
   30.4240   11.4640   -9.3330 C   0  0  2  0  0  0
   32.2880   12.9450   -8.4170 N   0  3  0  0  0  0
   28.6160   13.1350   -8.8070 C   0  0  0  0  0  0
   29.5620   12.5940   -9.8750 C   0  0  0  0  0  0
   34.1215    7.9367  -12.4510 H   0  0  0  0  0  0
   33.2058   10.2550  -12.1915 H   0  0  0  0  0  0
   28.6785   13.9925   -6.8482 H   0  0  0  0  0  0
   30.0203   14.4916   -7.9332 H   0  0  0  0  0  0
   30.8985   12.9722   -6.1953 H   0  0  0  0  0  0
   29.6596   11.7388   -6.6078 H   0  0  0  0  0  0
   31.7649   11.1041   -7.5971 H   0  0  0  0  0  0
   32.5522    4.2301   -9.6518 H   0  0  0  0  0  0
   27.1361    5.5078   -2.8325 H   0  0  0  0  0  0
   28.5211    4.3900   -3.0747 H   0  0  0  0  0  0
   27.0083    4.1627   -4.0161 H   0  0  0  0  0  0
   29.2018    4.4175   -5.9965 H   0  0  0  0  0  0
   30.3131    7.8470   -7.7424 H   0  0  0  0  0  0
   31.5799   11.7227  -11.2641 H   0  0  0  0  0  0
   29.8145   10.5983   -9.0345 H   0  0  0  0  0  0
   32.8245   13.2580   -7.5091 H   0  0  0  0  0  0
   31.8197   13.8223   -8.8871 H   0  0  0  0  0  0
   32.9968   12.4860   -9.1219 H   0  0  0  0  0  0
   27.9413   12.3269   -8.4880 H   0  0  0  0  0  0
   28.0256   13.9566   -9.2388 H   0  0  0  0  0  0
   30.2079   13.4159  -10.2175 H   0  0  0  0  0  0
   28.9607   12.2242  -10.7186 H   0  0  0  0  0  0
  1  2  2  0  0  0
  1 24  1  0  0  0
  1 31  1  0  0  0
  2  3  1  0  0  0
  2 32  1  0  0  0
  3 25  2  0  0  0
  3 26  1  0  0  0
  4 12  2  0  0  0
  4 18  1  0  0  0
  5  6  1  0  0  0
  5 29  1  0  0  0
  5 33  1  0  0  0
  5 34  1  0  0  0
  6  7  1  0  0  0
  6 35  1  0  0  0
  6 36  1  0  0  0
  7 27  1  0  0  0
  7 28  1  0  0  0
  7 37  1  0  0  0
  8  9  1  0  0  0
  8 23  2  0  0  0
  8 38  1  0  0  0
  9 10  1  0  0  0
  9 22  2  0  0  0
 10 20  1  0  0  0
 10 21  2  0  0  0
 11 12  1  0  0  0
 11 19  2  0  0  0
 11 20  1  0  0  0
 12 13  1  0  0  0
 13 15  1  0  0  0
 13 16  1  0  0  0
 13 17  1  0  0  0
 14 18  1  0  0  0
 14 39  1  0  0  0
 14 40  1  0  0  0
 14 41  1  0  0  0
 18 19  1  0  0  0
 19 42  1  0  0  0
 20 43  1  0  0  0
 22 24  1  0  0  0
 22 25  1  0  0  0
 23 24  1  0  0  0
 26 27  1  0  0  0
 26 44  1  0  0  0
 27 30  1  0  0  0
 27 45  1  0  0  0
 28 46  1  0  0  0
 28 47  1  0  0  0
 28 48  1  0  0  0
 29 30  1  0  0  0
 29 49  1  0  0  0
 29 50  1  0  0  0
 30 51  1  0  0  0
 30 52  1  0  0  0
M  CHG  1  28   1
M  END
> <s_m_source_file>
../4y73_ligand.sdf

> <i_m_source_file_index>
1

> <s_epik_input>
W05IMytdW0NASF0xW0NIMl1bQ0gyXVtDSDJdW0NIMl1bQ0BIXTFbTkhdYyhuMilbY0hdW2NIXW4oYzIzKW5bY0hdYzNDKD1PKVtOSF1jNGMoQyhGKShGKUYpbm4oW0NIM10pW2NIXTQ=

> <s_epik_cmdline>
J2VwaWtfYXBwJywgJy1pbWFlJywgJ2xpZ2FuZF9wcm8ubWFlJywgJy1vbWFlJywgJ2xpZ2FuZF9wcmVwLm1hZScsICctbXMnLCAnMScsICctcGgnLCAnNycsICctcGh0JywgJzAuNScsICctbnQn

> <r_lp_tautomer_probability>
1

> <r_epik_Ionization_Penalty>
  0.0003

> <r_epik_Ionization_Penalty_Charging>
  0.0002

> <r_epik_Ionization_Penalty_Neutral>
  0.0000

> <r_epik_State_Penalty>
 -0.0000

> <r_epik_Charging_Adjusted_Penalty>
0.000221028742301118

> <i_epik_Tot_Q>
1

> <i_epik_Tot_abs_Q>
1

$$$$
