4y7r_ligand
                    3D
 Schrodinger Suite 2020-3.
123122  0  0  1  0            999 V2000
   24.9940    0.9360   18.2950 N   0  3  0  0  0  0
   24.1740    1.0160   17.1050 C   0  0  2  0  0  0
   22.8250    1.6820   17.3250 C   0  0  0  0  0  0
   22.1830    2.0740   16.3860 O   0  0  0  0  0  0
   23.9880   -0.3560   16.5110 C   0  0  0  0  0  0
   24.1310   -0.3650   15.0070 C   0  0  0  0  0  0
   23.2210   -1.3660   14.3530 C   0  0  0  0  0  0
   23.4230   -1.6700   13.1650 O   0  5  0  0  0  0
   22.2990   -1.8500   15.0290 O   0  0  0  0  0  0
   22.3920    1.7880   18.5620 N   0  0  0  0  0  0
   21.1350    2.4380   18.8710 C   0  0  2  0  0  0
   21.5650    3.8620   19.1070 C   0  0  0  0  0  0
   22.3980    4.1270   19.9490 O   0  0  0  0  0  0
   20.5010    1.8030   20.1020 C   0  0  0  0  0  0
   19.4720    2.6540   20.8200 C   0  0  0  0  0  0
   18.2130    1.9050   21.2080 C   0  0  0  0  0  0
   17.8800    0.8800   20.5810 O   0  5  0  0  0  0
   17.5340    2.3750   22.1350 O   0  0  0  0  0  0
   21.0230    4.7870   18.3390 N   0  0  0  0  0  0
   21.4230    6.1670   18.4640 C   0  0  2  0  0  0
   20.5440    6.9480   19.4080 C   0  0  0  0  0  0
   19.3590    6.7440   19.4300 O   0  0  0  0  0  0
   21.4720    6.8020   17.0670 C   0  0  2  0  0  0
   22.7510    6.3910   16.3910 C   0  0  0  0  0  0
   21.4770    8.3090   17.1040 C   0  0  0  0  0  0
   22.5690    5.2300   15.4800 C   0  0  0  0  0  0
   21.1590    7.8440   20.1580 N   0  0  0  0  0  0
   20.4780    8.7030   21.0840 C   0  0  2  0  0  0
   20.6210   10.1430   20.6320 C   0  0  0  0  0  0
   21.6500   10.7520   20.7910 O   0  0  0  0  0  0
   21.0520    8.5710   22.4850 C   0  0  0  0  0  0
   20.3230    9.4130   23.4960 C   0  0  0  0  0  0
   19.5750   10.2960   23.1140 O   0  0  0  0  0  0
   20.5030    9.1920   24.7070 O   0  5  0  0  0  0
   19.5500   10.6850   20.0900 N   0  0  0  0  0  0
   19.5710   12.0480   19.5990 C   0  0  2  0  0  0
   19.1220   13.0890   20.5950 C   0  0  0  0  0  0
   18.9960   14.2380   20.2530 O   0  0  0  0  0  0
   18.6850   12.1590   18.3530 C   0  0  0  0  0  0
   19.1400   11.1810   17.3100 C   0  0  0  0  0  0
   17.2510   11.8530   18.7230 C   0  0  0  0  0  0
   18.8960   12.6900   21.8320 N   0  0  0  0  0  0
   18.4320   13.6210   22.8210 C   0  0  2  0  0  0
   19.3570   13.9530   23.9810 C   0  0  0  0  0  0
   19.5380   15.1030   24.2980 O   0  0  0  0  0  0
   17.0940   13.1220   23.3820 C   0  0  0  0  0  0
   16.5420   14.0670   24.4160 C   0  0  0  0  0  0
   16.1140   12.9350   22.2550 C   0  0  0  0  0  0
   19.9250   12.9490   24.6200 N   0  0  0  0  0  0
   20.7670   13.2110   25.7740 C   0  0  2  0  0  0
   21.9640   14.0110   25.4020 C   0  0  0  0  0  0
   22.5950   13.7610   24.4210 O   0  0  0  0  0  0
   21.1550   11.9340   26.5010 C   0  0  0  0  0  0
   20.8530   10.7880   25.7550 O   0  0  0  0  0  0
   22.2600   15.0020   26.2100 N   0  0  0  0  0  0
   23.4070   15.8420   25.9470 C   0  0  2  0  0  0
   24.6640   15.3830   26.6880 C   0  0  0  0  0  0
   24.5800   14.3830   27.4540 O   0  0  0  0  0  0
   23.1250   17.3230   26.2390 C   0  0  0  0  0  0
   21.9790   17.8030   25.3830 C   0  0  0  0  0  0
   22.7740   17.5290   27.6850 C   0  0  0  0  0  0
   25.7280   16.0260   26.4490 O   0  5  0  0  0  0
   25.1230    1.9425   18.7197 H   0  0  0  0  0  0
   25.9781    0.5189   18.0348 H   0  0  0  0  0  0
   24.5041    0.2858   19.0348 H   0  0  0  0  0  0
   24.7611    1.6614   16.4350 H   0  0  0  0  0  0
   24.7432   -1.0403   16.9251 H   0  0  0  0  0  0
   22.9823   -0.7283   16.7558 H   0  0  0  0  0  0
   23.8840    0.6304   14.6093 H   0  0  0  0  0  0
   25.1668   -0.6204   14.7387 H   0  0  0  0  0  0
   23.0081    1.3692   19.3713 H   0  0  0  0  0  0
   20.3979    2.3407   18.0604 H   0  0  0  0  0  0
   19.9873    0.8745   19.8122 H   0  0  0  0  0  0
   21.2833    1.5740   20.8406 H   0  0  0  0  0  0
   19.9094    3.0544   21.7465 H   0  0  0  0  0  0
   19.1662    3.4865   20.1693 H   0  0  0  0  0  0
   20.2611    4.5000   17.5993 H   0  0  0  0  0  0
   22.4182    6.1379   18.9317 H   0  0  0  0  0  0
   20.5786    6.4685   16.5187 H   0  0  0  0  0  0
   23.1368    7.2309   15.7946 H   0  0  0  0  0  0
   23.4940    6.1099   17.1519 H   0  0  0  0  0  0
   20.5581    8.6668   17.5913 H   0  0  0  0  0  0
   21.5240    8.7008   16.0772 H   0  0  0  0  0  0
   22.3526    8.6589   17.6704 H   0  0  0  0  0  0
   23.5326    4.9741   15.0151 H   0  0  0  0  0  0
   21.8413    5.4890   14.6968 H   0  0  0  0  0  0
   22.1985    4.3680   16.0542 H   0  0  0  0  0  0
   22.2510    7.9126   20.0452 H   0  0  0  0  0  0
   19.4308    8.3667   21.0668 H   0  0  0  0  0  0
   20.9858    7.5225   22.8110 H   0  0  0  0  0  0
   22.1053    8.8880   22.4811 H   0  0  0  0  0  0
   18.6301   10.0868   20.0130 H   0  0  0  0  0  0
   20.6415   12.2146   19.4087 H   0  0  0  0  0  0
   18.7527   13.1746   17.9358 H   0  0  0  0  0  0
   20.1830   11.3969   17.0351 H   0  0  0  0  0  0
   18.5002   11.2703   16.4197 H   0  0  0  0  0  0
   19.0704   10.1589   17.7106 H   0  0  0  0  0  0
   16.9095   12.5661   19.4878 H   0  0  0  0  0  0
   17.1853   10.8295   19.1206 H   0  0  0  0  0  0
   16.6151   11.9409   17.8297 H   0  0  0  0  0  0
   19.0650   11.6376   22.1038 H   0  0  0  0  0  0
   18.3895   14.5356   22.2113 H   0  0  0  0  0  0
   17.2432   12.1552   23.8850 H   0  0  0  0  0  0
   17.2731   14.1889   25.2288 H   0  0  0  0  0  0
   15.6055   13.6583   24.8234 H   0  0  0  0  0  0
   16.3441   15.0441   23.9512 H   0  0  0  0  0  0
   16.5369   12.2423   21.5125 H   0  0  0  0  0  0
   15.9138   13.9059   21.7783 H   0  0  0  0  0  0
   15.1752   12.5201   22.6506 H   0  0  0  0  0  0
   19.7625   11.9152   24.2811 H   0  0  0  0  0  0
   20.1468   13.8279   26.4410 H   0  0  0  0  0  0
   22.2373   11.9383   26.6975 H   0  0  0  0  0  0
   20.6095   11.8746   27.4544 H   0  0  0  0  0  0
   21.0809    9.7915   26.1612 H   0  0  0  0  0  0
   21.6298   15.1918   27.0914 H   0  0  0  0  0  0
   23.5503   15.6903   24.8670 H   0  0  0  0  0  0
   24.0267   17.9130   26.0178 H   0  0  0  0  0  0
   22.2275   17.6559   24.3216 H   0  0  0  0  0  0
   21.8018   18.8718   25.5734 H   0  0  0  0  0  0
   21.0723   17.2313   25.6300 H   0  0  0  0  0  0
   23.6046   17.1815   28.3170 H   0  0  0  0  0  0
   21.8655   16.9579   27.9267 H   0  0  0  0  0  0
   22.5949   18.5984   27.8701 H   0  0  0  0  0  0
  1  2  1  0  0  0
  1 63  1  0  0  0
  1 64  1  0  0  0
  1 65  1  0  0  0
  2  3  1  0  0  0
  2  5  1  0  0  0
  2 66  1  0  0  0
  3  4  2  0  0  0
  3 10  1  0  0  0
  5  6  1  0  0  0
  5 67  1  0  0  0
  5 68  1  0  0  0
  6  7  1  0  0  0
  6 69  1  0  0  0
  6 70  1  0  0  0
  7  8  1  0  0  0
  7  9  2  0  0  0
 10 11  1  0  0  0
 10 71  1  0  0  0
 11 12  1  0  0  0
 11 14  1  0  0  0
 11 72  1  0  0  0
 12 13  2  0  0  0
 12 19  1  0  0  0
 14 15  1  0  0  0
 14 73  1  0  0  0
 14 74  1  0  0  0
 15 16  1  0  0  0
 15 75  1  0  0  0
 15 76  1  0  0  0
 16 17  1  0  0  0
 16 18  2  0  0  0
 19 20  1  0  0  0
 19 77  1  0  0  0
 20 21  1  0  0  0
 20 23  1  0  0  0
 20 78  1  0  0  0
 21 22  2  0  0  0
 21 27  1  0  0  0
 23 24  1  0  0  0
 23 25  1  0  0  0
 23 79  1  0  0  0
 24 26  1  0  0  0
 24 80  1  0  0  0
 24 81  1  0  0  0
 25 82  1  0  0  0
 25 83  1  0  0  0
 25 84  1  0  0  0
 26 85  1  0  0  0
 26 86  1  0  0  0
 26 87  1  0  0  0
 27 28  1  0  0  0
 27 88  1  0  0  0
 28 29  1  0  0  0
 28 31  1  0  0  0
 28 89  1  0  0  0
 29 30  2  0  0  0
 29 35  1  0  0  0
 31 32  1  0  0  0
 31 90  1  0  0  0
 31 91  1  0  0  0
 32 33  2  0  0  0
 32 34  1  0  0  0
 35 36  1  0  0  0
 35 92  1  0  0  0
 36 37  1  0  0  0
 36 39  1  0  0  0
 36 93  1  0  0  0
 37 38  2  0  0  0
 37 42  1  0  0  0
 39 40  1  0  0  0
 39 41  1  0  0  0
 39 94  1  0  0  0
 40 95  1  0  0  0
 40 96  1  0  0  0
 40 97  1  0  0  0
 41 98  1  0  0  0
 41 99  1  0  0  0
 41100  1  0  0  0
 42 43  1  0  0  0
 42101  1  0  0  0
 43 44  1  0  0  0
 43 46  1  0  0  0
 43102  1  0  0  0
 44 45  2  0  0  0
 44 49  1  0  0  0
 46 47  1  0  0  0
 46 48  1  0  0  0
 46103  1  0  0  0
 47104  1  0  0  0
 47105  1  0  0  0
 47106  1  0  0  0
 48107  1  0  0  0
 48108  1  0  0  0
 48109  1  0  0  0
 49 50  1  0  0  0
 49110  1  0  0  0
 50 51  1  0  0  0
 50 53  1  0  0  0
 50111  1  0  0  0
 51 52  2  0  0  0
 51 55  1  0  0  0
 53 54  1  0  0  0
 53112  1  0  0  0
 53113  1  0  0  0
 54114  1  0  0  0
 55 56  1  0  0  0
 55115  1  0  0  0
 56 57  1  0  0  0
 56 59  1  0  0  0
 56116  1  0  0  0
 57 58  2  0  0  0
 57 62  1  0  0  0
 59 60  1  0  0  0
 59 61  1  0  0  0
 59117  1  0  0  0
 60118  1  0  0  0
 60119  1  0  0  0
 60120  1  0  0  0
 61121  1  0  0  0
 61122  1  0  0  0
 61123  1  0  0  0
M  CHG  5   1   1   8  -1  17  -1  34  -1  62  -1
M  END
> <s_m_source_file>
../4y7r_ligand.sdf

> <i_m_source_file_index>
1

> <s_epik_input>
W09IXUMoPU8pW0NIMl1bQ0gyXVtDQEhdKFtOSDMrXSlDKD1PKVtOSF1bQ0BASF0oW0NIMl1bQ0gyXUMoPU8pW09IXSlDKD1PKVtOSF1bQ0BASF0oW0NAQEhdKFtDSDNdKVtDSDJdW0NIM10pQyg9TylbTkhdW0NAQEhdKFtDSDJdQyg9TylbT0hdKUMoPU8pW05IXVtDQEBIXShbQ0hdKFtDSDNdKVtDSDNdKUMoPU8pW05IXVtDQEBIXShbQ0hdKFtDSDNdKVtDSDNdKUMoPU8pW05IXVtDQEBIXShbQ0gyXVtPSF0pQyg9TylbTkhdW0NASF0oQyg9TylbT0hdKVtDSF0oW0NIM10pW0NIM10=

> <s_epik_cmdline>
J2VwaWtfYXBwJywgJy1pbWFlJywgJ2xpZ2FuZF9wcm8ubWFlJywgJy1vbWFlJywgJ2xpZ2FuZF9wcmVwLm1hZScsICctbXMnLCAnMScsICctcGgnLCAnNycsICctcGh0JywgJzAuNScsICctbnQn

> <r_epik_Ionization_Penalty>
  0.0769

> <r_epik_Ionization_Penalty_Charging>
  0.0769

> <r_epik_Ionization_Penalty_Neutral>
  0.0000

> <r_epik_State_Penalty>
  0.0638

> <r_epik_Charging_Adjusted_Penalty>
0.140707263613327

> <i_epik_Tot_Q>
-3

> <i_epik_Tot_abs_Q>
5

$$$$
