4y83_ligand
                    3D
 Schrodinger Suite 2020-3.
 33 36  0  0  1  0            999 V2000
   -8.1700   -4.0670   -9.4480 C   0  0  0  0  0  0
   -8.2130   -5.3860   -9.9300 C   0  0  0  0  0  0
   -7.9170   -6.4200   -9.0360 C   0  0  0  0  0  0
  -10.0380   -5.3030  -16.1670 C   0  0  0  0  0  0
  -10.6460   -4.2210  -15.4980 C   0  0  0  0  0  0
  -10.4380   -4.0190  -14.1210 C   0  0  0  0  0  0
   -9.5920   -4.9040  -13.4290 C   0  0  0  0  0  0
   -9.3410   -4.7310  -12.0660 C   0  0  0  0  0  0
   -6.1630  -10.8600   -6.4250 S   0  5  0  0  0  0
   -6.7190   -9.2480   -6.2580 C   0  0  0  0  0  0
   -6.6930   -8.5280   -5.1720 N   0  0  0  0  0  0
   -6.9960   -7.2820   -5.5710 N   0  0  0  0  0  0
   -7.2840   -8.5790   -7.2630 O   0  0  0  0  0  0
   -7.3490   -7.3320   -6.7910 C   0  0  0  0  0  0
   -7.7010   -6.1480   -7.6720 C   0  0  0  0  0  0
   -7.6520   -4.7910   -7.2590 C   0  0  0  0  0  0
   -7.3470   -4.3850   -6.0070 N   0  0  0  0  0  0
   -7.9000   -3.8080   -8.1510 N   0  0  0  0  0  0
   -8.5090   -5.6370  -11.3740 C   0  0  0  0  0  0
   -8.9720   -5.9970  -14.0960 C   0  0  0  0  0  0
   -8.1650   -6.8600  -13.4190 N   0  0  0  0  0  0
   -7.8980   -6.6860  -12.1030 C   0  0  0  0  0  0
   -9.1960   -6.1880  -15.4750 C   0  0  0  0  0  0
   -8.3577   -3.2396  -10.1323 H   0  0  0  0  0  0
   -7.8530   -7.4458   -9.3988 H   0  0  0  0  0  0
  -10.2233   -5.4537  -17.2305 H   0  0  0  0  0  0
  -11.2840   -3.5336  -16.0534 H   0  0  0  0  0  0
  -10.9230   -3.1929  -13.6010 H   0  0  0  0  0  0
   -9.7899   -3.8921  -11.5341 H   0  0  0  0  0  0
   -7.1324   -5.1280   -5.2248 H   0  0  0  0  0  0
   -7.3133   -3.3114   -5.7698 H   0  0  0  0  0  0
   -7.2055   -7.3605  -11.5995 H   0  0  0  0  0  0
   -8.7193   -7.0161  -15.9995 H   0  0  0  0  0  0
  1  2  2  0  0  0
  1 18  1  0  0  0
  1 24  1  0  0  0
  2  3  1  0  0  0
  2 19  1  0  0  0
  3 15  2  0  0  0
  3 25  1  0  0  0
  4  5  2  0  0  0
  4 23  1  0  0  0
  4 26  1  0  0  0
  5  6  1  0  0  0
  5 27  1  0  0  0
  6  7  2  0  0  0
  6 28  1  0  0  0
  7  8  1  0  0  0
  7 20  1  0  0  0
  8 19  2  0  0  0
  8 29  1  0  0  0
  9 10  1  0  0  0
 10 11  2  0  0  0
 10 13  1  0  0  0
 11 12  1  0  0  0
 12 14  2  0  0  0
 13 14  1  0  0  0
 14 15  1  0  0  0
 15 16  1  0  0  0
 16 17  1  0  0  0
 16 18  2  0  0  0
 17 30  1  0  0  0
 17 31  1  0  0  0
 19 22  1  0  0  0
 20 21  1  0  0  0
 20 23  2  0  0  0
 21 22  2  0  0  0
 22 32  1  0  0  0
 23 33  1  0  0  0
M  CHG  1   9  -1
M  END
> <s_m_source_file>
../4y83_ligand.sdf

> <i_m_source_file_index>
1

> <s_epik_input>
Uz1jMVtuSF1uYyhvMSktYyhbY0hdMiljKFtOSDJdKW5bY0hdYzItYyhbY0hdMylbY0hdbmMoYzM0KVtjSF1bY0hdW2NIXVtjSF00

> <s_epik_cmdline>
J2VwaWtfYXBwJywgJy1pbWFlJywgJ2xpZ2FuZF9wcm8ubWFlJywgJy1vbWFlJywgJ2xpZ2FuZF9wcmVwLm1hZScsICctbXMnLCAnMScsICctcGgnLCAnNycsICctcGh0JywgJzAuNScsICctbnQn

> <r_lp_tautomer_probability>
0.999999772200052

> <r_epik_Ionization_Penalty>
  0.0583

> <r_epik_Ionization_Penalty_Charging>
  0.0000

> <r_epik_Ionization_Penalty_Neutral>
  0.0583

> <r_epik_State_Penalty>
  0.0476

> <r_epik_Charging_Adjusted_Penalty>
0.0475744727101489

> <i_epik_Tot_Q>
-1

> <i_epik_Tot_abs_Q>
1

$$$$
