4y87_ligand
                    3D
 Schrodinger Suite 2020-3.
 45 48  0  0  1  0            999 V2000
   82.6280   51.1320   39.5640 C   0  0  0  0  0  0
   82.0420   52.0860   40.5540 C   0  0  0  0  0  0
   80.7520   50.0500   40.3120 C   0  0  0  0  0  0
   80.6540   51.5070   40.8130 C   0  0  0  0  0  0
   80.2650   51.6350   42.2670 N   0  0  0  0  0  0
   79.2190   52.3230   42.7130 C   0  0  0  0  0  0
   78.2860   53.0200   42.0620 N   0  0  0  0  0  0
   80.8630   51.1510   43.2180 N   0  0  0  0  0  0
   80.2560   51.4790   44.3520 C   0  0  0  0  0  0
   79.2030   52.2290   44.0440 C   0  0  0  0  0  0
   78.2470   52.8270   44.7860 C   0  0  0  0  0  0
   78.2180   52.7460   46.0230 O   0  0  0  0  0  0
   77.2610   53.5610   44.1200 N   0  0  0  0  0  0
   77.3070   53.6470   42.7310 C   0  0  0  0  0  0
   76.3890   54.3560   42.0850 N   0  0  0  0  0  0
   76.5270   54.6840   40.6490 C   0  0  2  0  0  0
   76.0080   56.0940   40.3750 C   0  0  0  0  0  0
   75.8170   53.7040   39.9420 C   0  0  0  0  0  0
   74.4500   53.5390   40.1870 C   0  0  0  0  0  0
   73.7390   52.5560   39.5190 C   0  0  0  0  0  0
   74.4040   51.7320   38.6150 C   0  0  0  0  0  0
   75.7700   51.8720   38.3570 C   0  0  0  0  0  0
   76.4780   52.8620   39.0300 C   0  0  0  0  0  0
   82.2190   49.8170   40.1630 C   0  0  0  0  0  0
   73.5250   50.5560   37.8290 Cl  0  0  0  0  0  0
   82.1912   51.3189   38.5719 H   0  0  0  0  0  0
   83.7177   51.2749   39.5177 H   0  0  0  0  0  0
   82.6668   52.1049   41.4591 H   0  0  0  0  0  0
   82.0035   53.0934   40.1140 H   0  0  0  0  0  0
   80.2986   49.3760   41.0537 H   0  0  0  0  0  0
   80.2180   49.9546   39.3551 H   0  0  0  0  0  0
   79.8491   52.0573   40.3038 H   0  0  0  0  0  0
   80.5655   51.1860   45.3552 H   0  0  0  0  0  0
   75.5081   54.7016   42.6459 H   0  0  0  0  0  0
   77.5681   54.6063   40.3025 H   0  0  0  0  0  0
   76.5982   56.8206   40.9526 H   0  0  0  0  0  0
   74.9513   56.1601   40.6732 H   0  0  0  0  0  0
   76.1008   56.3167   39.3018 H   0  0  0  0  0  0
   73.9436   54.1847   40.9044 H   0  0  0  0  0  0
   72.6715   52.4290   39.6989 H   0  0  0  0  0  0
   76.2707   51.2185   37.6427 H   0  0  0  0  0  0
   77.5460   52.9854   38.8504 H   0  0  0  0  0  0
   82.4754   49.0026   39.4695 H   0  0  0  0  0  0
   82.7482   49.6676   41.1157 H   0  0  0  0  0  0
   76.4652   54.0594   44.6929 H   0  0  0  0  0  0
  1  2  1  0  0  0
  1 24  1  0  0  0
  1 26  1  0  0  0
  1 27  1  0  0  0
  2  4  1  0  0  0
  2 28  1  0  0  0
  2 29  1  0  0  0
  3  4  1  0  0  0
  3 24  1  0  0  0
  3 30  1  0  0  0
  3 31  1  0  0  0
  4  5  1  0  0  0
  4 32  1  0  0  0
  5  6  1  0  0  0
  5  8  1  0  0  0
  6  7  1  0  0  0
  6 10  2  0  0  0
  7 14  2  0  0  0
  8  9  2  0  0  0
  9 10  1  0  0  0
  9 33  1  0  0  0
 10 11  1  0  0  0
 11 12  2  0  0  0
 11 13  1  0  0  0
 13 14  1  0  0  0
 13 45  1  0  0  0
 14 15  1  0  0  0
 15 16  1  0  0  0
 15 34  1  0  0  0
 16 17  1  0  0  0
 16 18  1  0  0  0
 16 35  1  0  0  0
 17 36  1  0  0  0
 17 37  1  0  0  0
 17 38  1  0  0  0
 18 19  2  0  0  0
 18 23  1  0  0  0
 19 20  1  0  0  0
 19 39  1  0  0  0
 20 21  2  0  0  0
 20 40  1  0  0  0
 21 22  1  0  0  0
 21 25  1  0  0  0
 22 23  2  0  0  0
 22 41  1  0  0  0
 23 42  1  0  0  0
 24 43  1  0  0  0
 24 44  1  0  0  0
M  END
> <s_m_source_file>
../4y87_ligand.sdf

> <i_m_source_file_index>
1

> <s_epik_input>
W0NIMl0xW0NIMl1bQ0gyXVtDSDJdW0NIXTFuMm5bY0hdYyhjMjMpYyg9TyluYyhbbkhdMylbTkhdW0NASF0oW0NIM10pYzRbY0hdW2NIXWMoQ2wpW2NIXVtjSF00

> <s_epik_cmdline>
J2VwaWtfYXBwJywgJy1pbWFlJywgJ2xpZ2FuZF9wcm8ubWFlJywgJy1vbWFlJywgJ2xpZ2FuZF9wcmVwLm1hZScsICctbXMnLCAnMScsICctcGgnLCAnNycsICctcGh0JywgJzAuNScsICctbnQn

> <r_lp_tautomer_probability>
1

> <r_epik_Ionization_Penalty>
  0.0001

> <r_epik_Ionization_Penalty_Charging>
  0.0000

> <r_epik_Ionization_Penalty_Neutral>
  0.0000

> <r_epik_State_Penalty>
 -0.0000

> <r_epik_Charging_Adjusted_Penalty>
2.48514110183215e-05

> <i_epik_Tot_Q>
0

> <i_epik_Tot_abs_Q>
0

$$$$
