4y8c_ligand
                    3D
 Schrodinger Suite 2020-3.
 45 48  0  0  1  0            999 V2000
   81.3460   50.7170   39.4890 C   0  0  0  0  0  0
   81.0520   51.6970   40.5810 C   0  0  0  0  0  0
   79.3390   49.9760   40.2730 C   0  0  0  0  0  0
   79.5540   51.3680   40.8080 C   0  0  0  0  0  0
   79.2210   51.5180   42.2540 N   0  0  0  0  0  0
   78.1460   52.1990   42.6620 C   0  0  0  0  0  0
   77.1750   52.8110   41.9590 N   0  0  0  0  0  0
   79.8740   51.1140   43.2810 N   0  0  0  0  0  0
   79.2290   51.5120   44.3780 C   0  0  0  0  0  0
   78.1400   52.1950   44.0000 C   0  0  0  0  0  0
   77.1470   52.8110   44.6790 C   0  0  0  0  0  0
   77.1020   52.8370   45.9120 O   0  0  0  0  0  0
   76.1300   53.4430   43.9650 N   0  0  0  0  0  0
   76.1650   53.4310   42.5740 C   0  0  0  0  0  0
   75.2050   54.0330   41.8900 N   0  0  0  0  0  0
   75.2420   54.1560   40.4200 C   0  0  1  0  0  0
   73.8540   53.8100   39.8520 C   0  0  0  0  0  0
   75.6520   55.4600   40.1220 C   0  0  0  0  0  0
   77.0010   55.7120   39.8780 C   0  0  0  0  0  0
   77.4400   57.0050   39.6030 C   0  0  0  0  0  0
   76.5340   58.0640   39.5730 C   0  0  0  0  0  0
   75.1930   57.8240   39.8200 C   0  0  0  0  0  0
   74.7550   56.5300   40.1010 C   0  0  0  0  0  0
   80.7230   49.4120   40.0040 C   0  0  0  0  0  0
   77.0710   59.6700   39.2340 Cl  0  0  0  0  0  0
   80.8830   51.0617   38.5526 H   0  0  0  0  0  0
   82.4344   50.6364   39.3519 H   0  0  0  0  0  0
   81.6991   51.4877   41.4455 H   0  0  0  0  0  0
   81.2430   52.7179   40.2187 H   0  0  0  0  0  0
   78.8034   49.3740   41.0219 H   0  0  0  0  0  0
   78.7440   50.0261   39.3492 H   0  0  0  0  0  0
   78.8501   52.0445   40.3012 H   0  0  0  0  0  0
   79.5350   51.3155   45.4056 H   0  0  0  0  0  0
   74.3585   54.4496   42.4556 H   0  0  0  0  0  0
   76.0139   53.5210   39.9607 H   0  0  0  0  0  0
   73.5949   52.7756   40.1218 H   0  0  0  0  0  0
   73.8707   53.9100   38.7567 H   0  0  0  0  0  0
   73.1045   54.4971   40.2716 H   0  0  0  0  0  0
   77.7177   54.8911   39.9026 H   0  0  0  0  0  0
   78.4968   57.1896   39.4104 H   0  0  0  0  0  0
   74.4789   58.6471   39.7948 H   0  0  0  0  0  0
   73.6995   56.3517   40.3067 H   0  0  0  0  0  0
   80.7770   48.6446   39.2177 H   0  0  0  0  0  0
   81.2746   49.0674   40.8911 H   0  0  0  0  0  0
   75.3110   53.9443   44.5015 H   0  0  0  0  0  0
  1  2  1  0  0  0
  1 24  1  0  0  0
  1 26  1  0  0  0
  1 27  1  0  0  0
  2  4  1  0  0  0
  2 28  1  0  0  0
  2 29  1  0  0  0
  3  4  1  0  0  0
  3 24  1  0  0  0
  3 30  1  0  0  0
  3 31  1  0  0  0
  4  5  1  0  0  0
  4 32  1  0  0  0
  5  6  1  0  0  0
  5  8  1  0  0  0
  6  7  1  0  0  0
  6 10  2  0  0  0
  7 14  2  0  0  0
  8  9  2  0  0  0
  9 10  1  0  0  0
  9 33  1  0  0  0
 10 11  1  0  0  0
 11 12  2  0  0  0
 11 13  1  0  0  0
 13 14  1  0  0  0
 13 45  1  0  0  0
 14 15  1  0  0  0
 15 16  1  0  0  0
 15 34  1  0  0  0
 16 17  1  0  0  0
 16 18  1  0  0  0
 16 35  1  0  0  0
 17 36  1  0  0  0
 17 37  1  0  0  0
 17 38  1  0  0  0
 18 19  2  0  0  0
 18 23  1  0  0  0
 19 20  1  0  0  0
 19 39  1  0  0  0
 20 21  2  0  0  0
 20 40  1  0  0  0
 21 22  1  0  0  0
 21 25  1  0  0  0
 22 23  2  0  0  0
 22 41  1  0  0  0
 23 42  1  0  0  0
 24 43  1  0  0  0
 24 44  1  0  0  0
M  END
> <s_m_source_file>
../4y8c_ligand.sdf

> <i_m_source_file_index>
1

> <s_epik_input>
W0NIMl0xW0NIMl1bQ0gyXVtDSDJdW0NIXTFuMm5bY0hdYyhjMjMpYyg9TyluYyhbbkhdMylbTkhdW0NAQEhdKFtDSDNdKWM0W2NIXVtjSF1jKENsKVtjSF1bY0hdNA==

> <s_epik_cmdline>
J2VwaWtfYXBwJywgJy1pbWFlJywgJ2xpZ2FuZF9wcm8ubWFlJywgJy1vbWFlJywgJ2xpZ2FuZF9wcmVwLm1hZScsICctbXMnLCAnMScsICctcGgnLCAnNycsICctcGh0JywgJzAuNScsICctbnQn

> <r_lp_tautomer_probability>
1

> <r_epik_Ionization_Penalty>
  0.0001

> <r_epik_Ionization_Penalty_Charging>
  0.0000

> <r_epik_Ionization_Penalty_Neutral>
  0.0000

> <r_epik_State_Penalty>
 -0.0000

> <r_epik_Charging_Adjusted_Penalty>
2.48514110183215e-05

> <i_epik_Tot_Q>
0

> <i_epik_Tot_abs_Q>
0

$$$$
