4y8y_ligand
                    3D
 Schrodinger Suite 2020-3.
 70 74  0  0  1  0            999 V2000
   46.3720  -22.1720   31.9520 C   0  0  0  0  0  0
   48.6840  -22.3250   32.9020 C   0  0  0  0  0  0
   45.6140  -21.0070   29.9800 C   0  0  0  0  0  0
   38.9620  -19.0600   29.4030 C   0  0  0  0  0  0
   38.2970  -17.7410   29.2740 C   0  0  0  0  0  0
   37.8080  -17.1860   28.1630 C   0  0  0  0  0  0
   37.1730  -15.8670   28.0170 C   0  0  0  0  0  0
   44.0700  -22.3150   31.2550 C   0  0  0  0  0  0
   45.0730  -22.6300   32.1550 C   0  0  0  0  0  0
   37.6280  -14.9010   27.1090 C   0  0  0  0  0  0
   38.7850  -15.2100   24.8910 C   0  0  0  0  0  0
   41.1930  -21.0410   28.3900 C   0  0  0  0  0  0
   41.9860  -20.8410   27.3500 N   0  0  0  0  0  0
   43.2500  -20.9470   27.8300 C   0  0  3  0  0  0
   43.2580  -21.2080   29.1750 C   0  0  0  0  0  0
   41.9250  -21.2490   29.5160 N   0  0  0  0  0  0
   39.6950  -21.1040   28.3100 C   0  0  1  0  0  0
   39.0930  -19.7730   28.2670 N   0  0  0  0  0  0
   39.2050  -21.9550   27.1320 C   0  0  0  0  0  0
   44.5990  -20.7740   26.7810 Cl  0  0  0  0  0  0
   44.3220  -21.4970   30.1600 C   0  0  0  0  0  0
   46.6320  -21.3540   30.8520 C   0  0  0  0  0  0
   47.3570  -22.6310   32.8790 N   0  0  0  0  0  0
   49.2810  -21.6460   32.0960 O   0  0  0  0  0  0
   49.2370  -22.8490   34.0050 O   0  0  0  0  0  0
   39.4050  -19.4780   30.4800 O   0  0  0  0  0  0
   39.5780  -23.4220   27.1850 C   0  0  0  0  0  0
   50.6290  -22.5180   34.2330 C   0  0  0  0  0  0
   36.9720  -13.6790   27.0000 C   0  0  0  0  0  0
   35.8470  -13.4240   27.7670 C   0  0  0  0  0  0
   35.4110  -14.3770   28.6630 C   0  0  0  0  0  0
   36.0500  -15.5910   28.7920 C   0  0  0  0  0  0
   38.7110  -15.1800   26.2270 N   0  0  0  0  0  0
   39.9220  -15.5280   26.7240 N   0  0  0  0  0  0
   40.6700  -15.7620   25.6950 N   0  0  0  0  0  0
   39.9850  -15.5720   24.5380 N   0  0  0  0  0  0
   34.0610  -14.0140   29.7040 Cl  0  0  0  0  0  0
   40.1460  -23.8920   28.1650 O   0  0  0  0  0  0
   39.1940  -24.1990   26.1440 N   0  0  0  0  0  0
   38.3620  -23.7700   25.0110 C   0  0  0  0  0  0
   37.1320  -24.6290   24.9490 C   0  0  0  0  0  0
   37.4680  -26.0090   24.7940 O   0  0  0  0  0  0
   38.3030  -26.4400   25.8620 C   0  0  0  0  0  0
   39.5530  -25.6080   25.9810 C   0  0  0  0  0  0
   45.8258  -20.3424   29.1424 H   0  0  0  0  0  0
   38.2274  -17.2060   30.2326 H   0  0  0  0  0  0
   37.8560  -17.7311   27.2088 H   0  0  0  0  0  0
   43.0673  -22.7144   31.4072 H   0  0  0  0  0  0
   44.8445  -23.2407   33.0285 H   0  0  0  0  0  0
   37.9707  -14.9697   24.2074 H   0  0  0  0  0  0
   39.3585  -21.5540   29.2556 H   0  0  0  0  0  0
   38.7484  -19.3559   27.3093 H   0  0  0  0  0  0
   38.1067  -21.9166   27.0838 H   0  0  0  0  0  0
   39.6271  -21.5621   26.1952 H   0  0  0  0  0  0
   47.6430  -20.9858   30.6780 H   0  0  0  0  0  0
   47.0708  -23.3140   33.6924 H   0  0  0  0  0  0
   50.9734  -22.9998   35.1600 H   0  0  0  0  0  0
   50.7361  -21.4271   34.3250 H   0  0  0  0  0  0
   51.2343  -22.8758   33.3871 H   0  0  0  0  0  0
   37.3437  -12.9213   26.3102 H   0  0  0  0  0  0
   35.3121  -12.4799   27.6633 H   0  0  0  0  0  0
   35.6774  -16.3327   29.4985 H   0  0  0  0  0  0
   38.0712  -22.7179   25.1473 H   0  0  0  0  0  0
   38.9329  -23.8745   24.0766 H   0  0  0  0  0  0
   36.5559  -24.5121   25.8787 H   0  0  0  0  0  0
   36.5131  -24.3219   24.0931 H   0  0  0  0  0  0
   37.7521  -26.3653   26.8112 H   0  0  0  0  0  0
   38.6036  -27.4847   25.6938 H   0  0  0  0  0  0
   40.1595  -25.7290   25.0713 H   0  0  0  0  0  0
   40.1317  -25.9424   26.8546 H   0  0  0  0  0  0
  1  9  2  0  0  0
  1 22  1  0  0  0
  1 23  1  0  0  0
  2 23  1  0  0  0
  2 24  2  0  0  0
  2 25  1  0  0  0
  3 21  1  0  0  0
  3 22  2  0  0  0
  3 45  1  0  0  0
  4  5  1  0  0  0
  4 18  1  0  0  0
  4 26  2  0  0  0
  5  6  2  0  0  0
  5 46  1  0  0  0
  6  7  1  0  0  0
  6 47  1  0  0  0
  7 10  2  0  0  0
  7 32  1  0  0  0
  8  9  1  0  0  0
  8 21  2  0  0  0
  8 48  1  0  0  0
  9 49  1  0  0  0
 10 29  1  0  0  0
 10 33  1  0  0  0
 11 33  1  0  0  0
 11 36  2  0  0  0
 11 50  1  0  0  0
 12 13  2  0  0  0
 12 16  1  0  0  0
 12 17  1  0  0  0
 13 14  1  0  0  0
 14 15  1  0  0  0
 14 20  1  0  0  0
 15 16  2  0  0  0
 15 21  1  0  0  0
 17 18  1  0  0  0
 17 19  1  0  0  0
 17 51  1  0  0  0
 18 52  1  0  0  0
 19 27  1  0  0  0
 19 53  1  0  0  0
 19 54  1  0  0  0
 22 55  1  0  0  0
 23 56  1  0  0  0
 25 28  1  0  0  0
 27 38  2  0  0  0
 27 39  1  0  0  0
 28 57  1  0  0  0
 28 58  1  0  0  0
 28 59  1  0  0  0
 29 30  2  0  0  0
 29 60  1  0  0  0
 30 31  1  0  0  0
 30 61  1  0  0  0
 31 32  2  0  0  0
 31 37  1  0  0  0
 32 62  1  0  0  0
 33 34  1  0  0  0
 34 35  2  0  0  0
 35 36  1  0  0  0
 39 40  1  0  0  0
 39 44  1  0  0  0
 40 41  1  0  0  0
 40 63  1  0  0  0
 40 64  1  0  0  0
 41 42  1  0  0  0
 41 65  1  0  0  0
 41 66  1  0  0  0
 42 43  1  0  0  0
 43 44  1  0  0  0
 43 67  1  0  0  0
 43 68  1  0  0  0
 44 69  1  0  0  0
 44 70  1  0  0  0
M  END
> <s_m_source_file>
../4y8y_ligand.sdf

> <i_m_source_file_index>
1

> <s_epik_input>
W0NIM11PQyg9TylbTkhdYzFbY0hdW2NIXWMoW2NIXVtjSF0xKUMoPU4yKVtDSF0oQ2wpTj1DMltDQEhdKFtDSDJdQyg9TylOM1tDSDJdW0NIMl1PW0NIMl1bQ0gyXTMpW05IXUMoPU8pL1tDSF09W0NIXS9jNGMoW2NIXVtjSF1jKENsKVtjSF00KS1uNVtjSF1ubm41

> <s_epik_cmdline>
J2VwaWtfYXBwJywgJy1pbWFlJywgJ2xpZ2FuZF9wcm8ubWFlJywgJy1vbWFlJywgJ2xpZ2FuZF9wcmVwLm1hZScsICctbXMnLCAnMScsICctcGgnLCAnNycsICctcGh0JywgJzAuNScsICctbnQn

> <r_lp_tautomer_probability>
1

> <r_epik_Ionization_Penalty>
  0.0000

> <r_epik_Ionization_Penalty_Charging>
  0.0000

> <r_epik_Ionization_Penalty_Neutral>
  0.0000

> <r_epik_State_Penalty>
 -0.0000

> <r_epik_Charging_Adjusted_Penalty>
0

> <i_epik_Tot_Q>
0

> <i_epik_Tot_abs_Q>
0

> <s_epik_Chemistry_Notes>
This compound has an ester and may undergo hydrolysis at high or low pH. This compound has an imine and may undergo hydrolysis.

$$$$
