4y8z_ligand
                    3D
 Schrodinger Suite 2020-3.
 73 78  0  0  1  0            999 V2000
   46.2580  -21.4830   30.4720 C   0  0  0  0  0  0
   44.5260  -21.9190   32.0840 C   0  0  0  0  0  0
   45.4690  -22.2650   33.0250 C   0  0  0  0  0  0
   46.8280  -22.2520   32.7030 C   0  0  0  0  0  0
   48.6690  -21.7500   31.1680 C   0  0  0  0  0  0
   49.5860  -22.0660   32.1850 C   0  0  0  0  0  0
   49.1410  -22.4650   33.4960 C   0  0  0  0  0  0
   44.9020  -21.5370   30.8000 C   0  0  0  0  0  0
   38.9550  -15.0380   25.0960 C   0  0  0  0  0  0
   35.8140  -13.7820   27.9110 C   0  0  0  0  0  0
   39.8090  -24.5950   28.1230 N   0  0  0  0  0  0
   39.4310  -24.6670   26.6860 C   0  0  0  0  0  0
   40.3350  -25.6280   25.9250 C   0  0  0  0  0  0
   40.3840  -26.9330   26.5890 N   0  3  0  0  0  0
   40.8840  -26.7790   27.9430 C   0  0  0  0  0  0
   39.9740  -25.9240   28.7440 C   0  0  0  0  0  0
   41.8170  -20.9960   29.1600 C   0  0  0  0  0  0
   42.5620  -20.8050   28.0450 N   0  0  0  0  0  0
   43.8490  -20.9510   28.4250 C   0  0  3  0  0  0
   43.8540  -21.2400   29.7990 C   0  0  0  0  0  0
   42.5360  -21.2510   30.2220 N   0  0  0  0  0  0
   47.2340  -21.8390   31.4190 C   0  0  0  0  0  0
   45.1200  -20.7430   27.3000 Cl  0  0  0  0  0  0
   47.7880  -22.5660   33.6690 N   0  0  0  0  0  0
   49.9050  -22.6190   34.4650 O   0  5  0  0  0  0
   49.0370  -21.3090   29.9720 O   0  0  0  0  0  0
   40.3290  -21.0210   29.1860 C   0  0  1  0  0  0
   36.9630  -13.9610   27.1470 C   0  0  0  0  0  0
   35.4790  -14.7270   28.8520 C   0  0  0  0  0  0
   36.2660  -15.8490   29.0550 C   0  0  0  0  0  0
   37.4370  -16.0350   28.3090 C   0  0  0  0  0  0
   37.7870  -15.0760   27.3370 C   0  0  0  0  0  0
   38.8180  -15.3480   26.3850 N   0  0  0  0  0  0
   34.0210  -14.5150   29.8010 Cl  0  0  0  0  0  0
   40.1750  -15.2690   24.7050 N   0  0  0  0  0  0
   40.8170  -15.7380   25.8010 N   0  0  0  0  0  0
   40.0210  -15.7960   26.8230 N   0  0  0  0  0  0
   38.1990  -17.2670   28.5390 C   0  0  0  0  0  0
   38.6620  -17.6750   29.7060 C   0  0  0  0  0  0
   39.4900  -18.9000   29.9620 C   0  0  0  0  0  0
   39.8600  -19.1850   31.1100 O   0  0  0  0  0  0
   39.7980  -19.7010   28.8890 N   0  0  0  0  0  0
   39.8030  -22.1140   28.2580 C   0  0  0  0  0  0
   39.9640  -23.4920   28.8940 C   0  0  0  0  0  0
   40.1730  -23.6270   30.1010 O   0  0  0  0  0  0
   41.2340  -27.8440   25.8660 C   0  0  0  0  0  0
   46.5618  -21.1628   29.4754 H   0  0  0  0  0  0
   43.4689  -21.9446   32.3486 H   0  0  0  0  0  0
   45.1531  -22.5511   34.0282 H   0  0  0  0  0  0
   50.6546  -22.0081   31.9780 H   0  0  0  0  0  0
   38.1601  -14.6473   24.4607 H   0  0  0  0  0  0
   35.1866  -12.9027   27.7652 H   0  0  0  0  0  0
   38.3924  -25.0183   26.5972 H   0  0  0  0  0  0
   39.5204  -23.6687   26.2329 H   0  0  0  0  0  0
   39.9487  -25.7641   24.9041 H   0  0  0  0  0  0
   41.3535  -25.2151   25.8795 H   0  0  0  0  0  0
   39.3705  -27.3599   26.6147 H   0  0  0  0  0  0
   40.9567  -27.7668   28.4216 H   0  0  0  0  0  0
   41.8790  -26.3109   27.9154 H   0  0  0  0  0  0
   40.3979  -25.8075   29.7523 H   0  0  0  0  0  0
   38.9949  -26.4206   28.8130 H   0  0  0  0  0  0
   47.4739  -22.9262   34.6598 H   0  0  0  0  0  0
   39.9770  -21.2268   30.2076 H   0  0  0  0  0  0
   37.2250  -13.2222   26.3897 H   0  0  0  0  0  0
   35.9727  -16.5902   29.7984 H   0  0  0  0  0  0
   38.3757  -17.8698   27.6360 H   0  0  0  0  0  0
   38.4483  -17.0948   30.6158 H   0  0  0  0  0  0
   39.6602  -19.3859   27.8441 H   0  0  0  0  0  0
   38.7359  -21.9406   28.0552 H   0  0  0  0  0  0
   40.3641  -22.0933   27.3121 H   0  0  0  0  0  0
   40.8562  -27.9617   24.8396 H   0  0  0  0  0  0
   41.2364  -28.8216   26.3702 H   0  0  0  0  0  0
   42.2584  -27.4443   25.8361 H   0  0  0  0  0  0
  1  8  1  0  0  0
  1 22  2  0  0  0
  1 47  1  0  0  0
  2  3  1  0  0  0
  2  8  2  0  0  0
  2 48  1  0  0  0
  3  4  2  0  0  0
  3 49  1  0  0  0
  4 22  1  0  0  0
  4 24  1  0  0  0
  5  6  1  0  0  0
  5 22  1  0  0  0
  5 26  2  0  0  0
  6  7  2  0  0  0
  6 50  1  0  0  0
  7 24  1  0  0  0
  7 25  1  0  0  0
  8 20  1  0  0  0
  9 33  1  0  0  0
  9 35  2  0  0  0
  9 51  1  0  0  0
 10 28  2  0  0  0
 10 29  1  0  0  0
 10 52  1  0  0  0
 11 12  1  0  0  0
 11 16  1  0  0  0
 11 44  1  0  0  0
 12 13  1  0  0  0
 12 53  1  0  0  0
 12 54  1  0  0  0
 13 14  1  0  0  0
 13 55  1  0  0  0
 13 56  1  0  0  0
 14 15  1  0  0  0
 14 46  1  0  0  0
 14 57  1  0  0  0
 15 16  1  0  0  0
 15 58  1  0  0  0
 15 59  1  0  0  0
 16 60  1  0  0  0
 16 61  1  0  0  0
 17 18  2  0  0  0
 17 21  1  0  0  0
 17 27  1  0  0  0
 18 19  1  0  0  0
 19 20  1  0  0  0
 19 23  1  0  0  0
 20 21  2  0  0  0
 24 62  1  0  0  0
 27 42  1  0  0  0
 27 43  1  0  0  0
 27 63  1  0  0  0
 28 32  1  0  0  0
 28 64  1  0  0  0
 29 30  2  0  0  0
 29 34  1  0  0  0
 30 31  1  0  0  0
 30 65  1  0  0  0
 31 32  2  0  0  0
 31 38  1  0  0  0
 32 33  1  0  0  0
 33 37  1  0  0  0
 35 36  1  0  0  0
 36 37  2  0  0  0
 38 39  2  0  0  0
 38 66  1  0  0  0
 39 40  1  0  0  0
 39 67  1  0  0  0
 40 41  2  0  0  0
 40 42  1  0  0  0
 42 68  1  0  0  0
 43 44  1  0  0  0
 43 69  1  0  0  0
 43 70  1  0  0  0
 44 45  2  0  0  0
 46 71  1  0  0  0
 46 72  1  0  0  0
 46 73  1  0  0  0
M  CHG  2  14   1  25  -1
M  END
> <s_m_source_file>
../4y8z_ligand.sdf

> <i_m_source_file_index>
1

> <s_epik_input>
W25IXTFjKD1PKVtjSF1jKFtPSF0pYyhjMTIpW2NIXWMoW2NIXVtjSF0yKUMoPU4zKVtDSF0oQ2wpTj1DM1tDQEhdKFtDSDJdQyg9TylONFtDSDJdW0NIMl1bTkgrXShbQ0gzXSlbQ0gyXVtDSDJdNClbTkhdQyg9TylcW0NIXT1bQ0hdXGMoW2NIXTUpYyhbY0hdW2NIXWM1Q2wpLW42W2NIXW5ubjY=

> <s_epik_cmdline>
J2VwaWtfYXBwJywgJy1pbWFlJywgJ2xpZ2FuZF9wcm8ubWFlJywgJy1vbWFlJywgJ2xpZ2FuZF9wcmVwLm1hZScsICctbXMnLCAnMScsICctcGgnLCAnNycsICctcGh0JywgJzAuNScsICctbnQn

> <r_epik_Ionization_Penalty>
  0.1631

> <r_epik_Ionization_Penalty_Charging>
  0.1630

> <r_epik_Ionization_Penalty_Neutral>
  0.0000

> <r_epik_State_Penalty>
  0.1476

> <r_epik_Charging_Adjusted_Penalty>
0.310595480739205

> <i_epik_Tot_Q>
0

> <i_epik_Tot_abs_Q>
2

> <s_epik_Chemistry_Notes>
This compound has an imine and may undergo hydrolysis.

$$$$
