4y94_ligand
                    3D
 Schrodinger Suite 2020-3.
 48 48  0  0  1  0            999 V2000
    7.7730   14.6600  -38.7600 C   0  0  2  0  0  0
    6.7750   14.0930  -37.7790 C   0  0  1  0  0  0
    7.3050   14.1590  -36.3840 C   0  0  1  0  0  0
    7.8620   15.5290  -35.9760 C   0  0  2  0  0  0
    8.7530   16.1580  -37.0180 C   0  0  1  0  0  0
    8.1360   16.0860  -38.3990 C   0  0  1  0  0  0
    7.1830   14.7460  -40.0220 O   0  0  0  0  0  0
    7.3630   13.6250  -41.1320 P   0  0  0  0  0  0
    7.4730   14.3610  -42.4370 O   0  0  0  0  0  0
    8.5700   12.6400  -40.6480 O   0  5  0  0  0  0
    6.0730   12.6580  -40.9490 O   0  0  0  0  0  0
    5.6580   14.9440  -37.7790 O   0  0  0  0  0  0
    4.2030   14.5410  -38.4150 P   0  0  0  0  0  0
    3.9040   15.4520  -39.5900 O   0  0  0  0  0  0
    4.2490   12.9000  -38.7070 O   0  5  0  0  0  0
    3.1780   14.7020  -37.1640 O   0  0  0  0  0  0
    6.1130   14.0040  -35.6780 O   0  0  0  0  0  0
    5.6670   12.6870  -34.8460 P   0  0  0  0  0  0
    6.2180   11.4170  -35.4660 O   0  0  0  0  0  0
    3.9810   12.6930  -34.8840 O   0  5  0  0  0  0
    6.0610   13.1240  -33.2400 O   0  0  0  0  0  0
    8.7340   15.2920  -34.8900 O   0  0  0  0  0  0
    8.7780   16.1050  -33.4590 P   0  0  0  0  0  0
   10.1820   16.1910  -32.9550 O   0  0  0  0  0  0
    7.9460   17.4850  -33.6030 O   0  5  0  0  0  0
    7.8730   15.1390  -32.5620 O   0  0  0  0  0  0
    9.0580   17.5250  -36.6830 O   0  0  0  0  0  0
   10.6280   17.9900  -36.6890 P   0  0  0  0  0  0
   11.3550   17.5000  -37.9000 O   0  0  0  0  0  0
   11.2160   17.5320  -35.3250 O   0  5  0  0  0  0
   10.5050   19.5590  -36.6250 O   0  0  0  0  0  0
    9.0480   16.5280  -39.3650 O   0  0  0  0  0  0
    8.7470   17.9040  -40.1020 P   0  0  0  0  0  0
    9.0050   19.1330  -39.3260 O   0  0  0  0  0  0
    7.2520   17.7760  -40.5150 O   0  5  0  0  0  0
    9.6070   17.6750  -41.4120 O   0  0  0  0  0  0
    8.6428   13.9890  -38.8168 H   0  0  0  0  0  0
    6.4915   13.0693  -38.0646 H   0  0  0  0  0  0
    8.0769   13.3977  -36.1978 H   0  0  0  0  0  0
    7.0302   16.2036  -35.7249 H   0  0  0  0  0  0
    9.7154   15.6252  -37.0148 H   0  0  0  0  0  0
    7.2701   16.7632  -38.4391 H   0  0  0  0  0  0
    5.0676   13.0295  -41.1965 H   0  0  0  0  0  0
    2.9589   15.7004  -36.7574 H   0  0  0  0  0  0
    7.1147   13.1980  -32.9329 H   0  0  0  0  0  0
    8.2249   14.1258  -32.3177 H   0  0  0  0  0  0
   10.1081   20.1152  -37.4871 H   0  0  0  0  0  0
   10.7051   17.7191  -41.3638 H   0  0  0  0  0  0
  1  2  1  0  0  0
  1  6  1  0  0  0
  1  7  1  0  0  0
  1 37  1  0  0  0
  2  3  1  0  0  0
  2 12  1  0  0  0
  2 38  1  0  0  0
  3  4  1  0  0  0
  3 17  1  0  0  0
  3 39  1  0  0  0
  4  5  1  0  0  0
  4 22  1  0  0  0
  4 40  1  0  0  0
  5  6  1  0  0  0
  5 27  1  0  0  0
  5 41  1  0  0  0
  6 32  1  0  0  0
  6 42  1  0  0  0
  7  8  1  0  0  0
  8  9  2  0  0  0
  8 10  1  0  0  0
  8 11  1  0  0  0
 11 43  1  0  0  0
 12 13  1  0  0  0
 13 14  2  0  0  0
 13 15  1  0  0  0
 13 16  1  0  0  0
 16 44  1  0  0  0
 17 18  1  0  0  0
 18 19  2  0  0  0
 18 20  1  0  0  0
 18 21  1  0  0  0
 21 45  1  0  0  0
 22 23  1  0  0  0
 23 24  2  0  0  0
 23 25  1  0  0  0
 23 26  1  0  0  0
 26 46  1  0  0  0
 27 28  1  0  0  0
 28 29  2  0  0  0
 28 30  1  0  0  0
 28 31  1  0  0  0
 31 47  1  0  0  0
 32 33  1  0  0  0
 33 34  2  0  0  0
 33 35  1  0  0  0
 33 36  1  0  0  0
 36 48  1  0  0  0
M  CHG  6  10  -1  15  -1  20  -1  25  -1  30  -1  35  -1
M  END
> <s_m_source_file>
../4y94_ligand.sdf

> <i_m_source_file_index>
1

> <s_epik_input>
Tz1QKFtPSF0pKFtPSF0pT1tDQEBIXTFbQ0BIXShPUCg9TykoW09IXSlbT0hdKVtDQEhdKE9QKD1PKShbT0hdKVtPSF0pW0NAQEhdKE9QKD1PKShbT0hdKVtPSF0pW0NASF0oT1AoPU8pKFtPSF0pW09IXSlbQ0BIXTFPUCg9TykoW09IXSlbT0hd

> <s_epik_cmdline>
J2VwaWtfYXBwJywgJy1pbWFlJywgJ2xpZ2FuZF9wcm8ubWFlJywgJy1vbWFlJywgJ2xpZ2FuZF9wcmVwLm1hZScsICctbXMnLCAnMScsICctcGgnLCAnNycsICctcGh0JywgJzAuNScsICctbnQn

> <r_lp_tautomer_probability>
1

> <r_epik_Ionization_Penalty>
  2.1143

> <r_epik_Ionization_Penalty_Charging>
  0.0007

> <r_epik_Ionization_Penalty_Neutral>
  2.1136

> <r_epik_State_Penalty>
 -0.0000

> <r_epik_Charging_Adjusted_Penalty>
0.000707617278583297

> <i_epik_Tot_Q>
-6

> <i_epik_Tot_abs_Q>
6

$$$$
