4yay_ligand
                    3D
 Schrodinger Suite 2020-3.
 62 66  0  0  1  0            999 V2000
  -16.9230   14.4230   41.8820 C   0  0  0  0  0  0
  -18.3520   14.8570   40.0060 C   0  0  0  0  0  0
  -19.3500   15.7980   39.3710 C   0  0  0  0  0  0
  -20.7540   15.2930   39.5800 C   0  0  0  0  0  0
  -17.0680    9.7960   37.6540 O   0  0  0  0  0  0
  -17.8480   15.2470   41.2360 N   0  3  0  0  0  0
  -18.4550   13.1360   37.9670 C   0  0  0  0  0  0
  -18.6620   11.6390   37.9390 C   0  0  0  0  0  0
  -17.3890   10.9530   38.2990 C   0  0  1  0  0  0
  -15.2730   10.9560   39.7380 C   0  0  0  0  0  0
  -15.2850    9.8130   40.7500 C   0  0  0  0  0  0
  -16.5680    9.2330   41.2850 C   0  0  0  0  0  0
  -16.5210    8.1990   42.2180 C   0  0  0  0  0  0
  -14.0540    9.3360   41.1720 C   0  0  0  0  0  0
  -14.0050    8.2280   42.1980 C   0  0  0  0  0  0
  -15.1710    7.6930   42.6920 C   0  0  0  0  0  0
  -16.5620   11.5140   39.3040 N   0  0  0  0  0  0
  -15.0670    6.5430   43.6860 C   0  0  0  0  0  0
  -15.5220    6.7120   44.9730 C   0  0  0  0  0  0
  -15.4060    5.5650   45.9350 C   0  0  0  0  0  0
  -14.8460    4.3700   45.5450 C   0  0  0  0  0  0
  -14.3410    4.1870   44.1440 C   0  0  0  0  0  0
  -14.4460    5.2270   43.2530 C   0  0  0  0  0  0
  -13.9520    5.0510   41.8590 C   0  0  0  0  0  0
  -14.6950    5.2910   40.6730 N   0  0  0  0  0  0
  -13.9300    5.0780   39.5950 N   0  3  0  0  0  0
  -16.3930   14.8320   43.2280 C   0  0  0  0  0  0
  -12.6970    4.7060   40.0960 N   0  0  0  0  0  0
  -17.2920   14.3040   44.3020 C   0  0  0  0  0  0
  -12.7030    4.7040   41.4850 N   0  0  0  0  0  0
  -16.4690   13.2050   41.3020 C   0  0  0  0  0  0
  -16.9790   12.7760   39.9540 C   0  0  0  0  0  0
  -17.8990   13.5760   39.3360 C   0  0  0  0  0  0
  -19.2560   16.7945   39.8272 H   0  0  0  0  0  0
  -19.1516   15.8688   38.2914 H   0  0  0  0  0  0
  -21.4670   15.9881   39.1126 H   0  0  0  0  0  0
  -20.9622   15.2240   40.6579 H   0  0  0  0  0  0
  -20.8578   14.2983   39.1221 H   0  0  0  0  0  0
  -17.7378    9.3940   36.8795 H   0  0  0  0  0  0
  -17.7403   13.4221   37.1813 H   0  0  0  0  0  0
  -19.4155   13.6424   37.7909 H   0  0  0  0  0  0
  -19.4436   11.3634   38.6623 H   0  0  0  0  0  0
  -18.9713   11.3304   36.9295 H   0  0  0  0  0  0
  -16.8595   11.5304   37.5268 H   0  0  0  0  0  0
  -14.7207   11.8104   40.1564 H   0  0  0  0  0  0
  -14.7831   10.6207   38.8120 H   0  0  0  0  0  0
  -17.5283    9.6201   40.9441 H   0  0  0  0  0  0
  -17.4415    7.7595   42.6022 H   0  0  0  0  0  0
  -13.1323    9.7552   40.7685 H   0  0  0  0  0  0
  -13.0433    7.8521   42.5472 H   0  0  0  0  0  0
  -15.9582    7.6599   45.2883 H   0  0  0  0  0  0
  -15.7702    5.6804   46.9559 H   0  0  0  0  0  0
  -14.7687    3.5502   46.2592 H   0  0  0  0  0  0
  -13.8963    3.2404   43.8371 H   0  0  0  0  0  0
  -15.3812   14.4223   43.3636 H   0  0  0  0  0  0
  -16.3553   15.9297   43.2892 H   0  0  0  0  0  0
  -16.9029   14.6041   45.2862 H   0  0  0  0  0  0
  -17.3297   13.2063   44.2417 H   0  0  0  0  0  0
  -18.3040   14.7136   44.1673 H   0  0  0  0  0  0
  -15.7508   12.5825   41.8356 H   0  0  0  0  0  0
  -18.1659   16.1901   41.7046 H   0  0  0  0  0  0
  -14.3111    5.2027   38.6789 H   0  0  0  0  0  0
  1  6  2  0  0  0
  1 27  1  0  0  0
  1 31  1  0  0  0
  2  3  1  0  0  0
  2  6  1  0  0  0
  2 33  2  0  0  0
  3  4  1  0  0  0
  3 34  1  0  0  0
  3 35  1  0  0  0
  4 36  1  0  0  0
  4 37  1  0  0  0
  4 38  1  0  0  0
  5  9  1  0  0  0
  5 39  1  0  0  0
  6 61  1  0  0  0
  7  8  1  0  0  0
  7 33  1  0  0  0
  7 40  1  0  0  0
  7 41  1  0  0  0
  8  9  1  0  0  0
  8 42  1  0  0  0
  8 43  1  0  0  0
  9 17  1  0  0  0
  9 44  1  0  0  0
 10 11  1  0  0  0
 10 17  1  0  0  0
 10 45  1  0  0  0
 10 46  1  0  0  0
 11 12  2  0  0  0
 11 14  1  0  0  0
 12 13  1  0  0  0
 12 47  1  0  0  0
 13 16  2  0  0  0
 13 48  1  0  0  0
 14 15  2  0  0  0
 14 49  1  0  0  0
 15 16  1  0  0  0
 15 50  1  0  0  0
 16 18  1  0  0  0
 17 32  1  0  0  0
 18 19  2  0  0  0
 18 23  1  0  0  0
 19 20  1  0  0  0
 19 51  1  0  0  0
 20 21  2  0  0  0
 20 52  1  0  0  0
 21 22  1  0  0  0
 21 53  1  0  0  0
 22 23  2  0  0  0
 22 54  1  0  0  0
 23 24  1  0  0  0
 24 25  2  0  0  0
 24 30  1  0  0  0
 25 26  1  0  0  0
 26 28  1  0  0  0
 26 62  1  0  0  0
 27 29  1  0  0  0
 27 55  1  0  0  0
 27 56  1  0  0  0
 28 30  2  0  0  0
 29 57  1  0  0  0
 29 58  1  0  0  0
 29 59  1  0  0  0
 31 32  2  0  0  0
 31 60  1  0  0  0
 32 33  1  0  0  0
M  CHG  2   6   1  26   1
M  END
> <s_m_source_file>
../4yay_ligand.sdf

> <i_m_source_file_index>
1

> <s_epik_input>
W0NIM11bQ0gyXWMoW2NIXTEpbmMoW0NIMl1bQ0gzXSljKGMxMilbQ0gyXVtDSDJdW0NASF0oW09IXSlOMltDSDJdYzNbY0hdW2NIXWMoW2NIXVtjSF0zKS1jNFtjSF1bY0hdW2NIXVtjSF1jNC1jNW5bbkhdbm41

> <s_epik_cmdline>
J2VwaWtfYXBwJywgJy1pbWFlJywgJ2xpZ2FuZF9wcm8ubWFlJywgJy1vbWFlJywgJ2xpZ2FuZF9wcmVwLm1hZScsICctbXMnLCAnMScsICctcGgnLCAnNycsICctcGh0JywgJzAuNScsICctbnQn

> <r_epik_Ionization_Penalty>
 14.4645

> <r_epik_Ionization_Penalty_Charging>
  0.0001

> <r_epik_Ionization_Penalty_Neutral>
 14.4645

> <r_epik_State_Penalty>
  0.1070

> <r_epik_Charging_Adjusted_Penalty>
0.107085137074159

> <i_epik_Tot_Q>
2

> <i_epik_Tot_abs_Q>
2

> <s_epik_Chemistry_Notes>
This compound has an imine and may undergo hydrolysis. This compound contains an acetal/aminal-like group ( X-CH(R)-Y where X, Y are N, S, or O) that may be acid/base labile, releasing an aldehyde.

$$$$
