4ycl_ligand
                    3D
 Schrodinger Suite 2020-3.
 46 50  0  0  1  0            999 V2000
   25.0180  -17.9540   15.6270 O   0  5  0  0  0  0
   25.0750  -17.6690   14.4050 C   0  0  0  0  0  0
   26.1220  -17.7680   13.3650 C   0  0  0  0  0  0
   27.4220  -18.4530   13.4790 C   0  0  0  0  0  0
   28.1780  -18.0680   14.3440 O   0  0  0  0  0  0
   28.0260  -19.2160   12.2540 C   0  0  0  0  0  0
   23.8280  -17.3920   13.5910 C   0  0  2  0  0  0
   22.9280  -18.5970   13.3540 C   0  0  1  0  0  0
   21.9010  -18.9400   14.4040 C   0  0  0  0  0  0
   21.7980  -19.8380   15.4100 C   0  0  0  0  0  0
   20.5640  -19.6650   16.0470 N   0  3  0  0  0  0
   19.8270  -18.6420   15.4640 C   0  0  0  0  0  0
   20.6880  -18.2050   14.4340 C   0  0  0  0  0  0
   18.5680  -18.0010   15.6270 C   0  0  0  0  0  0
   18.1770  -16.9290   14.7620 C   0  0  0  0  0  0
   19.0680  -16.5200   13.7430 C   0  0  0  0  0  0
   20.3190  -17.1680   13.5910 C   0  0  0  0  0  0
   21.3430  -16.8090   12.5390 C   0  0  0  0  0  0
   22.2480  -18.0230   12.0720 C   0  0  1  0  0  0
   23.4530  -17.5940   11.1540 C   0  0  0  0  0  0
   24.0010  -18.7080   10.2630 C   0  0  0  0  0  0
   23.2070  -16.3760   10.2820 C   0  0  0  0  0  0
   24.3570  -17.2210   12.2480 N   0  3  2  0  0  0
   25.6810  -17.0710   12.2950 C   0  0  2  0  0  0
   26.3800  -16.7710   11.1660 O   0  5  0  0  0  0
   27.2180  -19.4973   11.5626 H   0  0  0  0  0  0
   28.5410  -20.1226   12.6044 H   0  0  0  0  0  0
   28.7436  -18.5645   11.7338 H   0  0  0  0  0  0
   23.2783  -16.5693   14.0717 H   0  0  0  0  0  0
   23.4669  -19.5559   13.3507 H   0  0  0  0  0  0
   22.6191  -20.5440   15.6032 H   0  0  0  0  0  0
   17.8940  -18.3290   16.4183 H   0  0  0  0  0  0
   17.2118  -16.4380   14.8865 H   0  0  0  0  0  0
   18.7922  -15.7052   13.0736 H   0  0  0  0  0  0
   20.8306  -16.4258   11.6443 H   0  0  0  0  0  0
   22.0188  -16.0361   12.9338 H   0  0  0  0  0  0
   21.6030  -18.7265   11.5251 H   0  0  0  0  0  0
   23.2738  -18.9337    9.4691 H   0  0  0  0  0  0
   24.1746  -19.6098   10.8685 H   0  0  0  0  0  0
   24.9490  -18.3823    9.8100 H   0  0  0  0  0  0
   22.5298  -16.6456    9.4582 H   0  0  0  0  0  0
   24.1631  -16.0212    9.8696 H   0  0  0  0  0  0
   22.7499  -15.5786   10.8864 H   0  0  0  0  0  0
   24.5946  -16.3623   11.6029 H   0  0  0  0  0  0
   26.0259  -16.0456   12.4937 H   0  0  0  0  0  0
   20.2903  -20.3049   16.8988 H   0  0  0  0  0  0
  1  2  1  0  0  0
  2  3  2  0  0  0
  2  7  1  0  0  0
  3  4  1  0  0  0
  3 24  1  0  0  0
  4  5  2  0  0  0
  4  6  1  0  0  0
  6 26  1  0  0  0
  6 27  1  0  0  0
  6 28  1  0  0  0
  7  8  1  0  0  0
  7 23  1  0  0  0
  7 29  1  0  0  0
  8  9  1  0  0  0
  8 19  1  0  0  0
  8 30  1  0  0  0
  9 10  2  0  0  0
  9 13  1  0  0  0
 10 11  1  0  0  0
 10 31  1  0  0  0
 11 12  1  0  0  0
 11 46  1  0  0  0
 12 13  2  0  0  0
 12 14  1  0  0  0
 13 17  1  0  0  0
 14 15  2  0  0  0
 14 32  1  0  0  0
 15 16  1  0  0  0
 15 33  1  0  0  0
 16 17  2  0  0  0
 16 34  1  0  0  0
 17 18  1  0  0  0
 18 19  1  0  0  0
 18 35  1  0  0  0
 18 36  1  0  0  0
 19 20  1  0  0  0
 19 37  1  0  0  0
 20 21  1  0  0  0
 20 22  1  0  0  0
 20 23  1  0  0  0
 21 38  1  0  0  0
 21 39  1  0  0  0
 21 40  1  0  0  0
 22 41  1  0  0  0
 22 42  1  0  0  0
 22 43  1  0  0  0
 23 24  1  0  0  0
 23 44  1  0  0  0
 24 25  1  0  0  0
 24 45  1  0  0  0
M  CHG  4   1  -1  11   1  23   1  25  -1
M  END
> <s_m_source_file>
../4ycl_ligand.sdf

> <i_m_source_file_index>
1

> <s_epik_input>
Tz1DMVtDSF0oQyg9TylbQ0gzXSlbQ0BASF0oW09IXSlbTkBIK10yQyhbQ0gzXSkoW0NIM10pW0NAQEhdM1tDSDJdYzRbY0hdW2NIXVtjSF1jKFtuSF1bY0hdNSljNGM1W0NAQEhdM1tDQEBIXTEy

> <s_epik_cmdline>
J2VwaWtfYXBwJywgJy1pbWFlJywgJ2xpZ2FuZF9wcm8ubWFlJywgJy1vbWFlJywgJ2xpZ2FuZF9wcmVwLm1hZScsICctbXMnLCAnMScsICctcGgnLCAnNycsICctcGh0JywgJzAuNScsICctbnQn

> <r_epik_Ionization_Penalty>
  0.0480

> <r_epik_Ionization_Penalty_Charging>
  0.0480

> <r_epik_Ionization_Penalty_Neutral>
  0.0000

> <r_epik_State_Penalty>
  0.0410

> <r_epik_Charging_Adjusted_Penalty>
0.0890379660734062

> <i_epik_Tot_Q>
0

> <i_epik_Tot_abs_Q>
4

> <s_epik_Chemistry_Notes>
This compound contains an acetal/aminal-like group ( X-CH(R)-Y where X, Y are N, S, or O) that may be acid/base labile, releasing an aldehyde.

$$$$
