4ycu_ligand
                    3D
 Schrodinger Suite 2020-3.
 41 43  0  0  1  0            999 V2000
   12.0660    4.7950   26.1600 O   0  0  0  0  0  0
   12.3790    3.6330   25.9600 C   0  0  0  0  0  0
   12.9240    2.7720   27.0560 C   0  0  0  0  0  0
   13.1790    1.3500   26.7510 C   0  0  0  0  0  0
   13.6840    0.5300   27.7530 C   0  0  0  0  0  0
   13.9460    1.0340   29.0280 C   0  0  0  0  0  0
   14.4400    0.1950   29.9810 O   0  0  0  0  0  0
   13.7160    2.3720   29.3570 C   0  0  0  0  0  0
   13.2130    3.2690   28.4210 C   0  0  0  0  0  0
   12.9930    4.5720   28.7510 O   0  0  0  0  0  0
   12.2250    3.0570   24.6310 O   0  0  0  0  0  0
   11.8340    1.6790   24.6570 C   0  0  2  0  0  0
   12.8900    0.8230   25.3610 C   0  0  0  0  0  0
   11.6400    1.1780   23.2310 C   0  0  0  0  0  0
   10.4830    1.9010   22.5500 C   0  0  2  0  0  0
    9.2350    1.4040   23.0370 O   0  0  0  0  0  0
    9.0710    0.0030   22.8180 C   0  0  1  0  0  0
    7.7760   -0.4640   23.4720 C   0  0  0  0  0  0
    9.0610   -0.2840   21.3220 C   0  0  0  0  0  0
   10.3290    0.2430   20.6630 C   0  0  0  0  0  0
   10.5690    1.7000   21.0410 C   0  0  0  0  0  0
   13.8782   -0.5213   27.5403 H   0  0  0  0  0  0
   14.6273   -0.8618   29.7398 H   0  0  0  0  0  0
   13.9350    2.7195   30.3666 H   0  0  0  0  0  0
   12.5947    5.2699   27.9998 H   0  0  0  0  0  0
   10.8896    1.6632   25.2208 H   0  0  0  0  0  0
   13.8132    0.8401   24.7631 H   0  0  0  0  0  0
   12.5173   -0.2096   25.4305 H   0  0  0  0  0  0
   12.5576    1.3570   22.6515 H   0  0  0  0  0  0
   11.4213    0.1001   23.2476 H   0  0  0  0  0  0
   10.4868    2.9706   22.8067 H   0  0  0  0  0  0
    9.9353   -0.4871   23.2899 H   0  0  0  0  0  0
    7.8097   -0.2452   24.5495 H   0  0  0  0  0  0
    7.6591   -1.5473   23.3213 H   0  0  0  0  0  0
    6.9246    0.0635   23.0172 H   0  0  0  0  0  0
    9.0003   -1.3699   21.1574 H   0  0  0  0  0  0
    8.1910    0.2060   20.8604 H   0  0  0  0  0  0
   11.1903   -0.3560   20.9938 H   0  0  0  0  0  0
   10.2310    0.1715   19.5697 H   0  0  0  0  0  0
    9.8085    2.3206   20.5445 H   0  0  0  0  0  0
   11.5688    1.9933   20.6884 H   0  0  0  0  0  0
  1  2  2  0  0  0
  2  3  1  0  0  0
  2 11  1  0  0  0
  3  4  2  0  0  0
  3  9  1  0  0  0
  4  5  1  0  0  0
  4 13  1  0  0  0
  5  6  2  0  0  0
  5 22  1  0  0  0
  6  7  1  0  0  0
  6  8  1  0  0  0
  7 23  1  0  0  0
  8  9  2  0  0  0
  8 24  1  0  0  0
  9 10  1  0  0  0
 10 25  1  0  0  0
 11 12  1  0  0  0
 12 13  1  0  0  0
 12 14  1  0  0  0
 12 26  1  0  0  0
 13 27  1  0  0  0
 13 28  1  0  0  0
 14 15  1  0  0  0
 14 29  1  0  0  0
 14 30  1  0  0  0
 15 16  1  0  0  0
 15 21  1  0  0  0
 15 31  1  0  0  0
 16 17  1  0  0  0
 17 18  1  0  0  0
 17 19  1  0  0  0
 17 32  1  0  0  0
 18 33  1  0  0  0
 18 34  1  0  0  0
 18 35  1  0  0  0
 19 20  1  0  0  0
 19 36  1  0  0  0
 19 37  1  0  0  0
 20 21  1  0  0  0
 20 38  1  0  0  0
 20 39  1  0  0  0
 21 40  1  0  0  0
 21 41  1  0  0  0
M  END
> <s_m_source_file>
../4ycu_ligand.sdf

> <i_m_source_file_index>
1

> <s_epik_input>
W0NIMl0xW0NIMl1bQ0gyXVtDQEhdKFtDSDNdKU9bQ0BIXTFbQ0gyXVtDQEhdKE9DMj1PKVtDSDJdYyhjMjMpW2NIXWMoW09IXSlbY0hdYzNbT0hd

> <s_epik_cmdline>
J2VwaWtfYXBwJywgJy1pbWFlJywgJ2xpZ2FuZF9wcm8ubWFlJywgJy1vbWFlJywgJ2xpZ2FuZF9wcmVwLm1hZScsICctbXMnLCAnMScsICctcGgnLCAnNycsICctcGh0JywgJzAuNScsICctbnQn

> <r_epik_Ionization_Penalty>
  0.0528

> <r_epik_Ionization_Penalty_Charging>
  0.0000

> <r_epik_Ionization_Penalty_Neutral>
  0.0528

> <r_epik_State_Penalty>
  0.0410

> <r_epik_Charging_Adjusted_Penalty>
0.0409598162868502

> <i_epik_Tot_Q>
0

> <i_epik_Tot_abs_Q>
0

> <s_epik_Chemistry_Notes>
This compound has an ester and may undergo hydrolysis at high or low pH.

$$$$
