4ycv_ligand
                    3D
 Schrodinger Suite 2020-3.
 41 43  0  0  1  0            999 V2000
   16.0940  -10.6280   63.3360 O   0  0  0  0  0  0
   15.6120  -11.7490   63.3340 C   0  0  0  0  0  0
   15.4970  -12.5810   64.5760 C   0  0  0  0  0  0
   14.7030  -13.8240   64.5090 C   0  0  0  0  0  0
   14.5950  -14.6120   65.6480 C   0  0  0  0  0  0
   15.2200  -14.2440   66.8420 C   0  0  0  0  0  0
   15.0910  -15.0410   67.9380 O   0  0  0  0  0  0
   15.9800  -13.0820   66.9540 C   0  0  0  0  0  0
   16.1450  -12.2330   65.8660 C   0  0  0  0  0  0
   16.8880  -11.0980   65.9790 O   0  0  0  0  0  0
   15.1160  -12.3240   62.0960 O   0  0  0  0  0  0
   13.8650  -12.9770   62.3150 C   0  0  2  0  0  0
   14.0340  -14.2080   63.2080 C   0  0  0  0  0  0
   13.3010  -13.3790   60.9590 C   0  0  0  0  0  0
   13.0940  -12.1100   60.1330 C   0  0  2  0  0  0
   11.9730  -11.3680   60.6330 O   0  0  0  0  0  0
   10.7510  -12.1050   60.5820 C   0  0  1  0  0  0
    9.6480  -11.3210   61.2730 C   0  0  0  0  0  0
   10.4000  -12.3310   59.1210 C   0  0  0  0  0  0
   11.5150  -13.1400   58.4750 C   0  0  0  0  0  0
   12.8620  -12.4520   58.6650 C   0  0  0  0  0  0
   14.0129  -15.5328   65.6094 H   0  0  0  0  0  0
   14.4969  -15.9649   67.8793 H   0  0  0  0  0  0
   16.4507  -12.8357   67.9058 H   0  0  0  0  0  0
   17.0120  -10.4332   65.1115 H   0  0  0  0  0  0
   13.2241  -12.2432   62.8257 H   0  0  0  0  0  0
   14.6526  -14.9507   62.6829 H   0  0  0  0  0  0
   13.0437  -14.6383   63.4180 H   0  0  0  0  0  0
   14.0100  -14.0493   60.4511 H   0  0  0  0  0  0
   12.3419  -13.8989   61.1003 H   0  0  0  0  0  0
   13.9663  -11.4486   60.2411 H   0  0  0  0  0  0
   10.9212  -13.0551   61.1095 H   0  0  0  0  0  0
    9.9151  -11.1649   62.3286 H   0  0  0  0  0  0
    8.7050  -11.8841   61.2128 H   0  0  0  0  0  0
    9.5254  -10.3464   60.7778 H   0  0  0  0  0  0
    9.4498  -12.8810   59.0530 H   0  0  0  0  0  0
   10.2988  -11.3602   58.6138 H   0  0  0  0  0  0
   11.5582  -14.1379   58.9357 H   0  0  0  0  0  0
   11.3174  -13.2418   57.3977 H   0  0  0  0  0  0
   12.8758  -11.5289   58.0669 H   0  0  0  0  0  0
   13.6571  -13.1272   58.3157 H   0  0  0  0  0  0
  1  2  2  0  0  0
  2  3  1  0  0  0
  2 11  1  0  0  0
  3  4  2  0  0  0
  3  9  1  0  0  0
  4  5  1  0  0  0
  4 13  1  0  0  0
  5  6  2  0  0  0
  5 22  1  0  0  0
  6  7  1  0  0  0
  6  8  1  0  0  0
  7 23  1  0  0  0
  8  9  2  0  0  0
  8 24  1  0  0  0
  9 10  1  0  0  0
 10 25  1  0  0  0
 11 12  1  0  0  0
 12 13  1  0  0  0
 12 14  1  0  0  0
 12 26  1  0  0  0
 13 27  1  0  0  0
 13 28  1  0  0  0
 14 15  1  0  0  0
 14 29  1  0  0  0
 14 30  1  0  0  0
 15 16  1  0  0  0
 15 21  1  0  0  0
 15 31  1  0  0  0
 16 17  1  0  0  0
 17 18  1  0  0  0
 17 19  1  0  0  0
 17 32  1  0  0  0
 18 33  1  0  0  0
 18 34  1  0  0  0
 18 35  1  0  0  0
 19 20  1  0  0  0
 19 36  1  0  0  0
 19 37  1  0  0  0
 20 21  1  0  0  0
 20 38  1  0  0  0
 20 39  1  0  0  0
 21 40  1  0  0  0
 21 41  1  0  0  0
M  END
> <s_m_source_file>
../4ycv_ligand.sdf

> <i_m_source_file_index>
1

> <s_epik_input>
W0NIMl0xW0NIMl1bQ0gyXVtDQEhdKFtDSDNdKU9bQ0BIXTFbQ0gyXVtDQEhdKE9DMj1PKVtDSDJdYyhjMjMpW2NIXWMoW09IXSlbY0hdYzNbT0hd

> <s_epik_cmdline>
J2VwaWtfYXBwJywgJy1pbWFlJywgJ2xpZ2FuZF9wcm8ubWFlJywgJy1vbWFlJywgJ2xpZ2FuZF9wcmVwLm1hZScsICctbXMnLCAnMScsICctcGgnLCAnNycsICctcGh0JywgJzAuNScsICctbnQn

> <r_epik_Ionization_Penalty>
  0.0528

> <r_epik_Ionization_Penalty_Charging>
  0.0000

> <r_epik_Ionization_Penalty_Neutral>
  0.0528

> <r_epik_State_Penalty>
  0.0410

> <r_epik_Charging_Adjusted_Penalty>
0.0409598162868499

> <i_epik_Tot_Q>
0

> <i_epik_Tot_abs_Q>
0

> <s_epik_Chemistry_Notes>
This compound has an ester and may undergo hydrolysis at high or low pH.

$$$$
