4ycw_ligand
                    3D
 Schrodinger Suite 2020-3.
 41 43  0  0  1  0            999 V2000
    6.1330    9.9590  -11.3690 O   0  0  0  0  0  0
    6.7280    9.3570  -12.2470 C   0  0  0  0  0  0
    8.2020    9.1190  -12.1670 C   0  0  0  0  0  0
    8.8730    8.4580  -13.3030 C   0  0  0  0  0  0
   10.2440    8.2370  -13.2430 C   0  0  0  0  0  0
   10.9820    8.6260  -12.1240 C   0  0  0  0  0  0
   12.3230    8.3890  -12.1010 O   0  0  0  0  0  0
   10.3860    9.2540  -11.0290 C   0  0  0  0  0  0
    9.0210    9.5200  -11.0010 C   0  0  0  0  0  0
    8.4480   10.1330   -9.9280 O   0  0  0  0  0  0
    6.0030    8.8740  -13.4130 O   0  0  0  0  0  0
    6.6240    7.7350  -14.0180 C   0  0  2  0  0  0
    8.0430    8.0490  -14.4950 C   0  0  0  0  0  0
    5.7740    7.2720  -15.1970 C   0  0  0  0  0  0
    4.3780    6.8750  -14.7230 C   0  0  2  0  0  0
    4.4510    5.6970  -13.9140 O   0  0  0  0  0  0
    4.9450    4.5540  -14.6150 C   0  0  1  0  0  0
    5.1120    3.3890  -13.6460 C   0  0  0  0  0  0
    3.9890    4.1980  -15.7450 C   0  0  0  0  0  0
    3.8570    5.3850  -16.6900 C   0  0  0  0  0  0
    3.4580    6.6360  -15.9180 C   0  0  0  0  0  0
   10.7488    7.7542  -14.0798 H   0  0  0  0  0  0
   12.8090    7.8951  -12.9554 H   0  0  0  0  0  0
   11.0033    9.5420  -10.1780 H   0  0  0  0  0  0
    7.3668   10.3356   -9.9229 H   0  0  0  0  0  0
    6.6636    6.9813  -13.2178 H   0  0  0  0  0  0
    8.0190    8.8717  -15.2247 H   0  0  0  0  0  0
    8.4866    7.1574  -14.9622 H   0  0  0  0  0  0
    5.6852    8.0890  -15.9282 H   0  0  0  0  0  0
    6.2510    6.4031  -15.6741 H   0  0  0  0  0  0
    3.9594    7.6527  -14.0673 H   0  0  0  0  0  0
    5.9234    4.8423  -15.0268 H   0  0  0  0  0  0
    5.8067    3.6766  -12.8431 H   0  0  0  0  0  0
    5.5146    2.5187  -14.1849 H   0  0  0  0  0  0
    4.1352    3.1311  -13.2109 H   0  0  0  0  0  0
    4.3807    3.3310  -16.2972 H   0  0  0  0  0  0
    3.0023    3.9507  -15.3263 H   0  0  0  0  0  0
    4.8202    5.5644  -17.1900 H   0  0  0  0  0  0
    3.0867    5.1688  -17.4449 H   0  0  0  0  0  0
    2.4236    6.5116  -15.5652 H   0  0  0  0  0  0
    3.5117    7.4973  -16.6001 H   0  0  0  0  0  0
  1  2  2  0  0  0
  2  3  1  0  0  0
  2 11  1  0  0  0
  3  4  2  0  0  0
  3  9  1  0  0  0
  4  5  1  0  0  0
  4 13  1  0  0  0
  5  6  2  0  0  0
  5 22  1  0  0  0
  6  7  1  0  0  0
  6  8  1  0  0  0
  7 23  1  0  0  0
  8  9  2  0  0  0
  8 24  1  0  0  0
  9 10  1  0  0  0
 10 25  1  0  0  0
 11 12  1  0  0  0
 12 13  1  0  0  0
 12 14  1  0  0  0
 12 26  1  0  0  0
 13 27  1  0  0  0
 13 28  1  0  0  0
 14 15  1  0  0  0
 14 29  1  0  0  0
 14 30  1  0  0  0
 15 16  1  0  0  0
 15 21  1  0  0  0
 15 31  1  0  0  0
 16 17  1  0  0  0
 17 18  1  0  0  0
 17 19  1  0  0  0
 17 32  1  0  0  0
 18 33  1  0  0  0
 18 34  1  0  0  0
 18 35  1  0  0  0
 19 20  1  0  0  0
 19 36  1  0  0  0
 19 37  1  0  0  0
 20 21  1  0  0  0
 20 38  1  0  0  0
 20 39  1  0  0  0
 21 40  1  0  0  0
 21 41  1  0  0  0
M  END
> <s_m_source_file>
../4ycw_ligand.sdf

> <i_m_source_file_index>
1

> <s_epik_input>
W0NIMl0xW0NIMl1bQ0gyXVtDQEhdKFtDSDNdKU9bQ0BIXTFbQ0gyXVtDQEhdKE9DMj1PKVtDSDJdYyhjMjMpW2NIXWMoW09IXSlbY0hdYzNbT0hd

> <s_epik_cmdline>
J2VwaWtfYXBwJywgJy1pbWFlJywgJ2xpZ2FuZF9wcm8ubWFlJywgJy1vbWFlJywgJ2xpZ2FuZF9wcmVwLm1hZScsICctbXMnLCAnMScsICctcGgnLCAnNycsICctcGh0JywgJzAuNScsICctbnQn

> <r_epik_Ionization_Penalty>
  0.0528

> <r_epik_Ionization_Penalty_Charging>
  0.0000

> <r_epik_Ionization_Penalty_Neutral>
  0.0528

> <r_epik_State_Penalty>
  0.0410

> <r_epik_Charging_Adjusted_Penalty>
0.0409598162868501

> <i_epik_Tot_Q>
0

> <i_epik_Tot_abs_Q>
0

> <s_epik_Chemistry_Notes>
This compound has an ester and may undergo hydrolysis at high or low pH.

$$$$
