4ye3_ligand
                    3D
 Schrodinger Suite 2020-3.
 81 84  0  0  1  0            999 V2000
   -9.3750  -14.8420   -8.2680 C   0  0  0  0  0  0
   -8.8310  -15.9310   -7.6360 C   0  0  0  0  0  0
   -8.3740  -15.8280   -6.3320 C   0  0  0  0  0  0
   -8.5040  -14.5990   -5.6510 C   0  0  0  0  0  0
   -9.0800  -13.5160   -6.2980 C   0  0  0  0  0  0
   -9.5340  -13.6230   -7.6120 C   0  0  0  0  0  0
   -8.1420  -14.5310   -4.0200 S   0  0  0  0  0  0
   -7.0100  -15.3970   -3.8170 O   0  0  0  0  0  0
   -7.9830  -13.1590   -3.6840 O   0  0  0  0  0  0
   -9.3740  -15.1130   -3.2640 N   0  0  3  0  0  0
  -10.6020  -14.2630   -3.3230 C   0  0  0  0  0  0
  -11.5250  -14.2850   -2.1110 C   0  0  0  0  0  0
  -10.8590  -13.5230   -0.9320 C   0  0  0  0  0  0
  -12.8730  -13.6680   -2.4280 C   0  0  0  0  0  0
   -9.3920  -16.5330   -2.9030 C   0  0  0  0  0  0
   -9.2670  -16.8690   -1.4300 C   0  0  1  0  0  0
   -9.5920  -18.2790   -1.2490 O   0  0  0  0  0  0
   -7.8360  -16.6140   -0.9170 C   0  0  1  0  0  0
   -7.7110  -16.7240    0.5880 N   0  0  0  0  0  0
   -7.7640  -15.5650    1.3660 C   0  0  0  0  0  0
   -8.4560  -14.4220    1.1210 O   0  0  0  0  0  0
   -7.6120  -16.1240    2.7030 O   0  0  0  0  0  0
   -7.4130  -15.1780    3.7500 C   0  0  1  0  0  0
   -8.4760  -15.3760    4.8180 C   0  0  0  0  0  0
   -8.1010  -16.5590    5.4770 O   0  0  0  0  0  0
   -6.6840  -16.6050    5.5290 C   0  0  1  0  0  0
   -6.2390  -17.8620    5.0070 O   0  0  0  0  0  0
   -5.4410  -17.7190    3.7930 C   0  0  0  0  0  0
   -5.0510  -16.2560    3.8070 C   0  0  1  0  0  0
   -6.1680  -15.5440    4.5610 C   0  0  1  0  0  0
   -6.8070  -17.6360   -1.3920 C   0  0  0  0  0  0
   -4.8810  -18.2130    0.1150 C   0  0  0  0  0  0
   -3.6430  -17.8960    0.6870 C   0  0  0  0  0  0
   -2.9380  -16.7290    0.3550 C   0  0  0  0  0  0
   -3.5100  -15.8490   -0.5690 C   0  0  0  0  0  0
   -4.7540  -16.1130   -1.1210 C   0  0  0  0  0  0
   -5.4280  -17.3040   -0.8100 C   0  0  0  0  0  0
   -9.7870  -14.9990   -9.5710 O   0  0  0  0  0  0
  -10.4840  -13.9170  -10.1650 C   0  0  0  0  0  0
   -3.9120  -16.1370    4.6020 O   0  0  0  0  0  0
   -2.8690  -15.7380    3.7710 C   0  0  0  0  0  0
   -8.7578  -16.8826   -8.1624 H   0  0  0  0  0  0
   -7.9192  -16.6866   -5.8379 H   0  0  0  0  0  0
   -9.1793  -12.5668   -5.7714 H   0  0  0  0  0  0
  -10.0011  -12.7751   -8.1130 H   0  0  0  0  0  0
  -10.3129  -13.2095   -3.4520 H   0  0  0  0  0  0
  -11.2259  -14.5786   -4.1722 H   0  0  0  0  0  0
  -11.7061  -15.3376   -1.8480 H   0  0  0  0  0  0
   -9.8820  -13.9761   -0.7079 H   0  0  0  0  0  0
  -11.5047  -13.5856   -0.0436 H   0  0  0  0  0  0
  -10.7189  -12.4679   -1.2099 H   0  0  0  0  0  0
  -13.3381  -14.2124   -3.2631 H   0  0  0  0  0  0
  -12.7365  -12.6132   -2.7086 H   0  0  0  0  0  0
  -13.5224  -13.7308   -1.5423 H   0  0  0  0  0  0
  -10.3414  -16.9824   -3.2297 H   0  0  0  0  0  0
   -8.5540  -17.0474   -3.3962 H   0  0  0  0  0  0
   -9.9880  -16.2671   -0.8575 H   0  0  0  0  0  0
  -10.5768  -18.6603   -1.5568 H   0  0  0  0  0  0
   -7.6337  -15.6009   -1.2946 H   0  0  0  0  0  0
   -7.5799  -17.7097    1.0584 H   0  0  0  0  0  0
   -7.4022  -14.2146    3.2192 H   0  0  0  0  0  0
   -8.4777  -14.5116    5.4983 H   0  0  0  0  0  0
   -9.4626  -15.4688    4.3406 H   0  0  0  0  0  0
   -6.3734  -16.5028    6.5793 H   0  0  0  0  0  0
   -4.5694  -18.3880    3.8462 H   0  0  0  0  0  0
   -6.0534  -17.9835    2.9184 H   0  0  0  0  0  0
   -4.8129  -15.8471    2.8139 H   0  0  0  0  0  0
   -5.7409  -14.6108    4.9569 H   0  0  0  0  0  0
   -7.1072  -18.6405   -1.0591 H   0  0  0  0  0  0
   -6.7499  -17.6156   -2.4903 H   0  0  0  0  0  0
   -5.4037  -19.1329    0.3772 H   0  0  0  0  0  0
   -3.2110  -18.5807    1.4169 H   0  0  0  0  0  0
   -1.9692  -16.5140    0.8059 H   0  0  0  0  0  0
   -2.9722  -14.9461   -0.8582 H   0  0  0  0  0  0
   -5.2106  -15.3924   -1.7995 H   0  0  0  0  0  0
  -10.7515  -14.1770  -11.1998 H   0  0  0  0  0  0
   -9.8423  -13.0236  -10.1656 H   0  0  0  0  0  0
  -11.3991  -13.7108   -9.5905 H   0  0  0  0  0  0
   -1.9481  -15.6324    4.3633 H   0  0  0  0  0  0
   -3.1190  -14.7727    3.3066 H   0  0  0  0  0  0
   -2.7157  -16.4936    2.9864 H   0  0  0  0  0  0
  1  2  2  0  0  0
  1  6  1  0  0  0
  1 38  1  0  0  0
  2  3  1  0  0  0
  2 42  1  0  0  0
  3  4  2  0  0  0
  3 43  1  0  0  0
  4  5  1  0  0  0
  4  7  1  0  0  0
  5  6  2  0  0  0
  5 44  1  0  0  0
  6 45  1  0  0  0
  7  8  2  0  0  0
  7  9  2  0  0  0
  7 10  1  0  0  0
 10 11  1  0  0  0
 10 15  1  0  0  0
 11 12  1  0  0  0
 11 46  1  0  0  0
 11 47  1  0  0  0
 12 13  1  0  0  0
 12 14  1  0  0  0
 12 48  1  0  0  0
 13 49  1  0  0  0
 13 50  1  0  0  0
 13 51  1  0  0  0
 14 52  1  0  0  0
 14 53  1  0  0  0
 14 54  1  0  0  0
 15 16  1  0  0  0
 15 55  1  0  0  0
 15 56  1  0  0  0
 16 17  1  0  0  0
 16 18  1  0  0  0
 16 57  1  0  0  0
 17 58  1  0  0  0
 18 19  1  0  0  0
 18 31  1  0  0  0
 18 59  1  0  0  0
 19 20  1  0  0  0
 19 60  1  0  0  0
 20 21  2  0  0  0
 20 22  1  0  0  0
 22 23  1  0  0  0
 23 24  1  0  0  0
 23 30  1  0  0  0
 23 61  1  0  0  0
 24 25  1  0  0  0
 24 62  1  0  0  0
 24 63  1  0  0  0
 25 26  1  0  0  0
 26 27  1  0  0  0
 26 30  1  0  0  0
 26 64  1  0  0  0
 27 28  1  0  0  0
 28 29  1  0  0  0
 28 65  1  0  0  0
 28 66  1  0  0  0
 29 30  1  0  0  0
 29 40  1  0  0  0
 29 67  1  0  0  0
 30 68  1  0  0  0
 31 37  1  0  0  0
 31 69  1  0  0  0
 31 70  1  0  0  0
 32 33  2  0  0  0
 32 37  1  0  0  0
 32 71  1  0  0  0
 33 34  1  0  0  0
 33 72  1  0  0  0
 34 35  2  0  0  0
 34 73  1  0  0  0
 35 36  1  0  0  0
 35 74  1  0  0  0
 36 37  2  0  0  0
 36 75  1  0  0  0
 38 39  1  0  0  0
 39 76  1  0  0  0
 39 77  1  0  0  0
 39 78  1  0  0  0
 40 41  1  0  0  0
 41 79  1  0  0  0
 41 80  1  0  0  0
 41 81  1  0  0  0
M  END
> <s_m_source_file>
../4ye3_ligand.sdf

> <i_m_source_file_index>
1

> <s_epik_input>
W0NIM11PYzFbY0hdW2NIXWMoW2NIXVtjSF0xKVMoPU8pKD1PKU4oW0NIMl1bQ0hdKFtDSDNdKVtDSDNdKVtDSDJdW0NAQEhdKFtPSF0pW0NASF0oW0NIMl1jMltjSF1bY0hdW2NIXVtjSF1bY0hdMilbTkhdQyg9TylPW0NAQEhdKFtDSDJdTzMpW0NAQEhdKFtDQEBIXTM0KVtDQEhdKFtDSDJdTzQpT1tDSDNd

> <s_epik_cmdline>
J2VwaWtfYXBwJywgJy1pbWFlJywgJ2xpZ2FuZF9wcm8ubWFlJywgJy1vbWFlJywgJ2xpZ2FuZF9wcmVwLm1hZScsICctbXMnLCAnMScsICctcGgnLCAnNycsICctcGh0JywgJzAuNScsICctbnQn

> <r_lp_tautomer_probability>
1

> <r_epik_Ionization_Penalty>
  0.0000

> <r_epik_Ionization_Penalty_Charging>
  0.0000

> <r_epik_Ionization_Penalty_Neutral>
  0.0000

> <r_epik_State_Penalty>
 -0.0000

> <r_epik_Charging_Adjusted_Penalty>
0

> <i_epik_Tot_Q>
0

> <i_epik_Tot_abs_Q>
0

> <s_epik_Chemistry_Notes>
This compound has an ester and may undergo hydrolysis at high or low pH. This compound contains an acetal/aminal-like group ( X-CH(R)-Y where X, Y are N, S, or O) that may be acid/base labile, releasing an aldehyde.

$$$$
