4yee_ligand
                    3D
 Schrodinger Suite 2020-3.
168176  0  0  1  0            999 V2000
   36.1900  -21.7360   16.6710 O   0  0  0  0  0  0
   36.8960  -20.5260   16.9760 C   0  0  2  0  0  0
   36.3610  -19.4140   16.0960 C   0  0  1  0  0  0
   34.9540  -19.2800   16.3980 O   0  0  0  0  0  0
   37.1930  -18.1600   16.3850 C   0  0  2  0  0  0
   36.7960  -17.0890   15.5180 O   0  0  0  0  0  0
   38.7040  -18.4420   16.1480 C   0  0  1  0  0  0
   39.5650  -17.1790   16.3440 C   0  0  0  0  0  0
   39.4700  -16.6960   17.7010 O   0  0  0  0  0  0
   39.1090  -19.4930   17.0340 O   0  0  0  0  0  0
   38.4060  -20.7300   16.8260 C   0  0  2  0  0  0
   38.6990  -21.2370   15.5460 O   0  0  0  0  0  0
   40.0670  -21.6590   15.3880 C   0  0  0  0  0  0
   40.1520  -22.3330   14.0290 C   0  0  2  0  0  0
   41.4390  -23.1270   13.7700 C   0  0  1  0  0  0
   41.4880  -24.2180   14.6680 O   0  0  0  0  0  0
   42.3950  -24.1070   15.7720 C   0  0  2  0  0  0
   43.4520  -25.2170   15.6690 C   0  0  2  0  0  0
   44.1310  -25.2170   14.4080 O   0  0  0  0  0  0
   42.7860  -26.5620   15.8800 C   0  0  1  0  0  0
   43.7450  -27.5750   15.9520 O   0  0  0  0  0  0
   41.6660  -24.2390   16.9930 O   0  0  0  0  0  0
   40.9760  -25.4920   17.1970 C   0  0  2  0  0  0
   40.2510  -25.4220   18.5370 C   0  0  0  0  0  0
   39.3500  -24.3270   18.4390 O   0  0  0  0  0  0
   41.9940  -26.6160   17.1790 C   0  0  1  0  0  0
   41.3060  -27.8490   17.2270 O   0  0  0  0  0  0
   41.3470  -28.6170   18.4440 C   0  0  2  0  0  0
   41.8250  -30.0210   18.0970 C   0  0  2  0  0  0
   43.0300  -29.9450   17.3680 O   0  0  0  0  0  0
   40.8420  -30.7450   17.1710 C   0  0  1  0  0  0
   41.2280  -32.0720   16.8170 O   0  0  0  0  0  0
   40.0200  -28.7480   18.9300 O   0  0  0  0  0  0
   39.1040  -29.3490   18.0120 C   0  0  2  0  0  0
   37.6870  -29.2540   18.5290 C   0  0  0  0  0  0
   37.7420  -29.3060   19.9450 O   0  0  0  0  0  0
   39.4860  -30.7790   17.7730 C   0  0  1  0  0  0
   38.6620  -31.3620   16.7710 O   0  0  0  0  0  0
   37.9000  -32.5470   17.1190 C   0  0  2  0  0  0
   37.9280  -33.5100   15.9450 C   0  0  2  0  0  0
   39.2870  -33.7790   15.5570 O   0  0  0  0  0  0
   37.1770  -32.9250   14.7470 C   0  0  1  0  0  0
   37.1540  -33.8480   13.6500 O   0  0  0  0  0  0
   36.5310  -32.2260   17.3510 O   0  0  0  0  0  0
   35.8800  -31.5210   16.3090 C   0  0  2  0  0  0
   34.5540  -31.0180   16.8400 C   0  0  0  0  0  0
   34.1120  -31.9350   17.8530 O   0  0  0  0  0  0
   39.9320  -21.3670   13.0000 O   0  0  0  0  0  0
   39.8830  -21.9080   11.6650 C   0  0  1  0  0  0
   41.2000  -22.6100   11.3400 C   0  0  2  0  0  0
   41.1690  -23.1060   10.0010 O   0  0  0  0  0  0
   41.4660  -23.7180   12.3500 C   0  0  1  0  0  0
   42.7140  -24.4070   12.0680 O   0  0  0  0  0  0
   38.8130  -22.8660   11.5210 O   0  0  0  0  0  0
   37.6560  -22.4430   10.8340 C   0  0  2  0  0  0
   36.3940  -22.6120   11.7000 C   0  0  1  0  0  0
   36.2980  -21.6930   12.9000 C   0  0  0  0  0  0
   35.5520  -22.3550   13.9120 O   0  0  0  0  0  0
   35.1640  -22.6560   10.9720 O   0  0  0  0  0  0
   35.1860  -23.3500    9.7130 C   0  0  1  0  0  0
   36.3030  -22.9340    8.7990 C   0  0  2  0  0  0
   36.2270  -23.7050    7.5770 O   0  0  0  0  0  0
   37.6530  -23.1390    9.5060 C   0  0  1  0  0  0
   38.7110  -22.6380    8.6770 O   0  0  0  0  0  0
   35.3830  -24.7250    9.9970 O   0  0  0  0  0  0
   34.2460  -25.5430    9.6700 C   0  0  2  0  0  0
   33.5140  -25.9160   10.9480 C   0  0  1  0  0  0
   32.7310  -24.6950   11.4580 C   0  0  0  0  0  0
   32.5210  -24.9940   12.8340 O   0  0  0  0  0  0
   32.5400  -26.9770   10.7340 O   0  0  0  0  0  0
   33.0030  -28.1380   10.0470 C   0  0  1  0  0  0
   33.6230  -27.7650    8.7150 C   0  0  2  0  0  0
   34.1310  -28.9220    8.0560 O   0  0  0  0  0  0
   34.7640  -26.7650    8.9320 C   0  0  1  0  0  0
   35.3000  -26.3080    7.7020 O   0  0  0  0  0  0
   33.9400  -28.7850   10.8930 O   0  0  0  0  0  0
   33.5450  -30.0450   11.4780 C   0  0  2  0  0  0
   33.2530  -29.9610   12.9930 C   0  0  2  0  0  0
   33.0540  -31.2550   13.5370 O   0  0  0  0  0  0
   32.0130  -29.1840   13.4230 C   0  0  0  0  0  0
   30.8350  -29.7460   12.7910 O   0  0  0  0  0  0
   34.7110  -30.9990   11.2130 C   0  0  2  0  0  0
   34.8360  -31.1740    9.7900 O   0  0  0  0  0  0
   34.4090  -32.3470   11.8610 C   0  0  1  0  0  0
   35.5060  -33.2410   11.7360 O   0  0  0  0  0  0
   34.1060  -32.1950   13.3420 C   0  0  1  0  0  0
   35.2430  -31.7100   14.0230 O   0  0  0  0  0  0
   35.7680  -32.4460   15.1160 C   0  0  1  0  0  0
   35.0919  -21.7619   16.7300 H   0  0  0  0  0  0
   36.6839  -20.2878   18.0288 H   0  0  0  0  0  0
   36.3904  -19.6168   15.0153 H   0  0  0  0  0  0
   34.2715  -20.1252   16.2253 H   0  0  0  0  0  0
   36.9856  -17.8179   17.4097 H   0  0  0  0  0  0
   35.7562  -16.7303   15.5276 H   0  0  0  0  0  0
   38.8925  -18.8221   15.1331 H   0  0  0  0  0  0
   40.6170  -17.4149   16.1256 H   0  0  0  0  0  0
   39.2173  -16.3888   15.6624 H   0  0  0  0  0  0
   40.0275  -15.7980   18.0055 H   0  0  0  0  0  0
   38.8071  -21.4589   17.5456 H   0  0  0  0  0  0
   40.7291  -20.7818   15.4354 H   0  0  0  0  0  0
   40.3297  -22.3606   16.1934 H   0  0  0  0  0  0
   39.3199  -23.0499   13.9688 H   0  0  0  0  0  0
   42.3128  -22.4863   13.9598 H   0  0  0  0  0  0
   42.8278  -23.0958   15.7615 H   0  0  0  0  0  0
   44.2557  -25.0361   16.3980 H   0  0  0  0  0  0
   44.6770  -24.3211   14.0773 H   0  0  0  0  0  0
   42.1562  -26.7722   15.0030 H   0  0  0  0  0  0
   44.4437  -27.7312   15.1169 H   0  0  0  0  0  0
   40.2561  -25.6377   16.3782 H   0  0  0  0  0  0
   39.7124  -26.3650   18.7122 H   0  0  0  0  0  0
   40.9833  -25.2629   19.3423 H   0  0  0  0  0  0
   38.7037  -24.0686   19.2908 H   0  0  0  0  0  0
   42.6486  -26.5766   18.0621 H   0  0  0  0  0  0
   41.9610  -28.0879   19.1877 H   0  0  0  0  0  0
   42.0088  -30.5637   19.0360 H   0  0  0  0  0  0
   43.9128  -29.4630   17.8133 H   0  0  0  0  0  0
   40.8313  -30.2204   16.2042 H   0  0  0  0  0  0
   42.2087  -32.2543   16.3533 H   0  0  0  0  0  0
   39.1969  -28.7757   17.0778 H   0  0  0  0  0  0
   37.2386  -28.3058   18.1976 H   0  0  0  0  0  0
   37.0966  -30.0954   18.1374 H   0  0  0  0  0  0
   36.8144  -29.2522   20.5338 H   0  0  0  0  0  0
   39.3849  -31.3730   18.6933 H   0  0  0  0  0  0
   38.3205  -32.9413   18.0558 H   0  0  0  0  0  0
   37.4921  -34.4713   16.2547 H   0  0  0  0  0  0
   39.9926  -34.2058   16.2850 H   0  0  0  0  0  0
   37.7443  -32.0678   14.3555 H   0  0  0  0  0  0
   38.0938  -34.2779   13.2731 H   0  0  0  0  0  0
   36.4870  -30.6517   16.0159 H   0  0  0  0  0  0
   34.6873  -30.0128   17.2664 H   0  0  0  0  0  0
   33.8231  -30.9741   16.0191 H   0  0  0  0  0  0
   33.1607  -31.7593   18.3767 H   0  0  0  0  0  0
   39.6578  -21.0565   11.0060 H   0  0  0  0  0  0
   42.0449  -21.9056   11.3431 H   0  0  0  0  0  0
   40.9860  -22.4169    9.1633 H   0  0  0  0  0  0
   40.7134  -24.5139   12.2491 H   0  0  0  0  0  0
   43.0431  -25.2349   12.7131 H   0  0  0  0  0  0
   37.7466  -21.3631   10.6454 H   0  0  0  0  0  0
   36.4570  -23.6395   12.0878 H   0  0  0  0  0  0
   37.3090  -21.4625   13.2671 H   0  0  0  0  0  0
   35.7924  -20.7606   12.6083 H   0  0  0  0  0  0
   35.3656  -21.8550   14.8739 H   0  0  0  0  0  0
   34.2134  -23.1505    9.2395 H   0  0  0  0  0  0
   36.1844  -21.8827    8.4977 H   0  0  0  0  0  0
   35.3199  -23.6637    6.9562 H   0  0  0  0  0  0
   37.8728  -24.2052    9.6642 H   0  0  0  0  0  0
   39.7544  -22.6991    9.0200 H   0  0  0  0  0  0
   33.5626  -24.9677    9.0281 H   0  0  0  0  0  0
   34.2576  -26.3027   11.6604 H   0  0  0  0  0  0
   33.3332  -23.7861   11.3120 H   0  0  0  0  0  0
   31.7883  -24.6041   10.8985 H   0  0  0  0  0  0
   31.9746  -24.2853   13.4737 H   0  0  0  0  0  0
   32.1571  -28.8238    9.8916 H   0  0  0  0  0  0
   32.8478  -27.3657    8.0445 H   0  0  0  0  0  0
   33.4572  -29.7567    7.8127 H   0  0  0  0  0  0
   35.5922  -27.2657    9.4549 H   0  0  0  0  0  0
   36.1280  -25.5839    7.6981 H   0  0  0  0  0  0
   32.6049  -30.3339   10.9853 H   0  0  0  0  0  0
   34.1520  -29.4899   13.4170 H   0  0  0  0  0  0
   31.9027  -29.2451   14.5157 H   0  0  0  0  0  0
   32.1180  -28.1308   13.1234 H   0  0  0  0  0  0
   29.8445  -29.3095   12.9871 H   0  0  0  0  0  0
   35.6671  -30.5939   11.5761 H   0  0  0  0  0  0
   35.0546  -30.3090    9.1466 H   0  0  0  0  0  0
   33.5710  -32.8104   11.3197 H   0  0  0  0  0  0
   35.8964  -33.4967   10.7399 H   0  0  0  0  0  0
   33.8140  -33.1529   13.7972 H   0  0  0  0  0  0
   35.0697  -33.2747   15.3046 H   0  0  0  0  0  0
  1  2  1  0  0  0
  1 89  1  0  0  0
  2  3  1  0  0  0
  2 11  1  0  0  0
  2 90  1  0  0  0
  3  4  1  0  0  0
  3  5  1  0  0  0
  3 91  1  0  0  0
  4 92  1  0  0  0
  5  6  1  0  0  0
  5  7  1  0  0  0
  5 93  1  0  0  0
  6 94  1  0  0  0
  7  8  1  0  0  0
  7 10  1  0  0  0
  7 95  1  0  0  0
  8  9  1  0  0  0
  8 96  1  0  0  0
  8 97  1  0  0  0
  9 98  1  0  0  0
 10 11  1  0  0  0
 11 12  1  0  0  0
 11 99  1  0  0  0
 12 13  1  0  0  0
 13 14  1  0  0  0
 13100  1  0  0  0
 13101  1  0  0  0
 14 15  1  0  0  0
 14 48  1  0  0  0
 14102  1  0  0  0
 15 16  1  0  0  0
 15 52  1  0  0  0
 15103  1  0  0  0
 16 17  1  0  0  0
 17 18  1  0  0  0
 17 22  1  0  0  0
 17104  1  0  0  0
 18 19  1  0  0  0
 18 20  1  0  0  0
 18105  1  0  0  0
 19106  1  0  0  0
 20 21  1  0  0  0
 20 26  1  0  0  0
 20107  1  0  0  0
 21108  1  0  0  0
 22 23  1  0  0  0
 23 24  1  0  0  0
 23 26  1  0  0  0
 23109  1  0  0  0
 24 25  1  0  0  0
 24110  1  0  0  0
 24111  1  0  0  0
 25112  1  0  0  0
 26 27  1  0  0  0
 26113  1  0  0  0
 27 28  1  0  0  0
 28 29  1  0  0  0
 28 33  1  0  0  0
 28114  1  0  0  0
 29 30  1  0  0  0
 29 31  1  0  0  0
 29115  1  0  0  0
 30116  1  0  0  0
 31 32  1  0  0  0
 31 37  1  0  0  0
 31117  1  0  0  0
 32118  1  0  0  0
 33 34  1  0  0  0
 34 35  1  0  0  0
 34 37  1  0  0  0
 34119  1  0  0  0
 35 36  1  0  0  0
 35120  1  0  0  0
 35121  1  0  0  0
 36122  1  0  0  0
 37 38  1  0  0  0
 37123  1  0  0  0
 38 39  1  0  0  0
 39 40  1  0  0  0
 39 44  1  0  0  0
 39124  1  0  0  0
 40 41  1  0  0  0
 40 42  1  0  0  0
 40125  1  0  0  0
 41126  1  0  0  0
 42 43  1  0  0  0
 42 88  1  0  0  0
 42127  1  0  0  0
 43128  1  0  0  0
 44 45  1  0  0  0
 45 46  1  0  0  0
 45 88  1  0  0  0
 45129  1  0  0  0
 46 47  1  0  0  0
 46130  1  0  0  0
 46131  1  0  0  0
 47132  1  0  0  0
 48 49  1  0  0  0
 49 50  1  0  0  0
 49 54  1  0  0  0
 49133  1  0  0  0
 50 51  1  0  0  0
 50 52  1  0  0  0
 50134  1  0  0  0
 51135  1  0  0  0
 52 53  1  0  0  0
 52136  1  0  0  0
 53137  1  0  0  0
 54 55  1  0  0  0
 55 56  1  0  0  0
 55 63  1  0  0  0
 55138  1  0  0  0
 56 57  1  0  0  0
 56 59  1  0  0  0
 56139  1  0  0  0
 57 58  1  0  0  0
 57140  1  0  0  0
 57141  1  0  0  0
 58142  1  0  0  0
 59 60  1  0  0  0
 60 61  1  0  0  0
 60 65  1  0  0  0
 60143  1  0  0  0
 61 62  1  0  0  0
 61 63  1  0  0  0
 61144  1  0  0  0
 62145  1  0  0  0
 63 64  1  0  0  0
 63146  1  0  0  0
 64147  1  0  0  0
 65 66  1  0  0  0
 66 67  1  0  0  0
 66 74  1  0  0  0
 66148  1  0  0  0
 67 68  1  0  0  0
 67 70  1  0  0  0
 67149  1  0  0  0
 68 69  1  0  0  0
 68150  1  0  0  0
 68151  1  0  0  0
 69152  1  0  0  0
 70 71  1  0  0  0
 71 72  1  0  0  0
 71 76  1  0  0  0
 71153  1  0  0  0
 72 73  1  0  0  0
 72 74  1  0  0  0
 72154  1  0  0  0
 73155  1  0  0  0
 74 75  1  0  0  0
 74156  1  0  0  0
 75157  1  0  0  0
 76 77  1  0  0  0
 77 78  1  0  0  0
 77 82  1  0  0  0
 77158  1  0  0  0
 78 79  1  0  0  0
 78 80  1  0  0  0
 78159  1  0  0  0
 79 86  1  0  0  0
 80 81  1  0  0  0
 80160  1  0  0  0
 80161  1  0  0  0
 81162  1  0  0  0
 82 83  1  0  0  0
 82 84  1  0  0  0
 82163  1  0  0  0
 83164  1  0  0  0
 84 85  1  0  0  0
 84 86  1  0  0  0
 84165  1  0  0  0
 85166  1  0  0  0
 86 87  1  0  0  0
 86167  1  0  0  0
 87 88  1  0  0  0
 88168  1  0  0  0
M  END
> <s_m_source_file>
../4yee_ligand.sdf

> <i_m_source_file_index>
1

> <s_epik_input>
W09IXVtDQEBIXTFbQ0BASF0oW09IXSlbQ0BIXShbT0hdKVtDQEBIXShbQ0gyXVtPSF0pT1tDQEBIXTFPW0NIMl1bQ0BIXShbQ0BASF0yMylPW0NAQEhdKFtDQEhdKFtPSF0pW0NASF0zW09IXSlPW0NAQEhdNFtDQEBIXShbQ0gyXVtPSF0pT1tDQEBIXShbQ0BIXShbT0hdKVtDQEhdNFtPSF0pT1tDQEBIXTVbQ0BASF0oW0NIMl1bT0hdKU9bQ0BASF0oW0NASF0oW09IXSlbQ0BIXTVbT0hdKU9bQ0BASF02W0NAQEhdKFtDSDJdW09IXSlPW0NAQEhdKFtDQEhdKFtPSF0pW0NASF02W09IXSlPW0NASF03W0NASF0oW09IXSlbQ0BASF0oW09IXSlbQ0BIXShPW0NAQEhdN1tDSDJdW09IXSlPW0NASF04W0NASF0oW09IXSlbQ0BASF0oW09IXSlbQ0BIXShPW0NAQEhdOFtDSDJdW09IXSlPW0NASF05W0NASF0oW09IXSlbQ0BASF0oW09IXSlbQ0BASF0oTzIpT1tDQEBIXTlbQ0gyXVtPSF0=

> <s_epik_cmdline>
J2VwaWtfYXBwJywgJy1pbWFlJywgJ2xpZ2FuZF9wcm8ubWFlJywgJy1vbWFlJywgJ2xpZ2FuZF9wcmVwLm1hZScsICctbXMnLCAnMScsICctcGgnLCAnNycsICctcGh0JywgJzAuNScsICctbnQn

> <s_epik_pKa_notes>
Molecule size exceeds maximum supported for generating protonation states

> <s_epik_Chemistry_Notes>
This compound contains an acetal/aminal-like group ( X-CH(R)-Y where X, Y are N, S, or O) that may be acid/base labile, releasing an aldehyde.

$$$$
