4yef_ligand
                    3D
 Schrodinger Suite 2020-3.
147154  0  0  1  0            999 V2000
  -11.8790   -9.0110    9.7020 O   0  0  0  0  0  0
  -10.5400   -8.6570    9.2700 C   0  0  0  0  0  0
   -9.6810   -9.8660    9.0930 C   0  0  2  0  0  0
   -8.1630   -9.5360    9.0100 C   0  0  1  0  0  0
   -7.6720   -9.0820   10.2720 O   0  0  0  0  0  0
   -7.0290   -7.8250   10.3510 C   0  0  2  0  0  0
   -5.7580   -8.0570   11.1720 C   0  0  2  0  0  0
   -4.9770   -9.1110   10.5970 O   0  0  0  0  0  0
   -6.1190   -8.4200   12.6020 C   0  0  1  0  0  0
   -4.9440   -8.5840   13.4200 O   0  0  0  0  0  0
   -7.8350   -6.8570   11.0010 O   0  0  0  0  0  0
   -8.2780   -7.1810   12.3140 C   0  0  2  0  0  0
   -9.1960   -6.0480   12.7200 C   0  0  0  0  0  0
  -10.4360   -6.2190   11.9700 O   0  0  0  0  0  0
   -7.0430   -7.3440   13.1930 C   0  0  1  0  0  0
   -7.4120   -7.7580   14.5040 O   0  0  0  0  0  0
   -7.2650   -6.8520   15.5880 C   0  0  2  0  0  0
   -6.4670   -7.5530   16.6820 C   0  0  2  0  0  0
   -5.1780   -7.9550   16.1840 O   0  0  0  0  0  0
   -7.1980   -8.7860   17.1880 C   0  0  1  0  0  0
   -6.4540   -9.3280   18.2860 O   0  0  0  0  0  0
   -8.6050   -6.5530   16.0680 O   0  0  0  0  0  0
   -9.3120   -7.7780   16.3270 C   0  0  2  0  0  0
  -10.8150   -7.5050   16.4760 C   0  0  0  0  0  0
  -10.9190   -6.6580   17.6070 O   0  0  0  0  0  0
   -8.6400   -8.4230   17.5730 C   0  0  1  0  0  0
   -9.2780   -9.6450   17.9340 O   0  0  0  0  0  0
   -9.9940   -9.6350   19.1880 C   0  0  2  0  0  0
   -9.4390  -10.7290   20.0920 C   0  0  2  0  0  0
   -8.0390  -10.5150   20.2370 O   0  0  0  0  0  0
   -9.7360  -12.0830   19.4640 C   0  0  1  0  0  0
   -9.3470  -13.1660   20.3100 O   0  0  0  0  0  0
  -11.3780   -9.8320   18.9190 O   0  0  0  0  0  0
  -11.7130  -11.0490   18.2710 C   0  0  2  0  0  0
  -13.1990  -11.0590   18.0040 C   0  0  0  0  0  0
  -13.4670   -9.9070   17.1870 O   0  0  0  0  0  0
  -10.0720  -10.5250    7.8900 O   0  0  0  0  0  0
   -9.4280  -11.7280    7.5620 C   0  0  1  0  0  0
   -7.9320  -11.4300    7.3760 C   0  0  2  0  0  0
   -7.2500  -12.6450    7.1390 O   0  0  0  0  0  0
   -7.3630  -10.7420    8.6060 C   0  0  1  0  0  0
   -5.9730  -10.3360    8.3790 O   0  0  0  0  0  0
   -9.5830  -12.5750    8.6600 O   0  0  0  0  0  0
  -10.2710  -13.8000    8.3010 C   0  0  2  0  0  0
  -11.7200  -13.7090    8.6960 C   0  0  1  0  0  0
  -12.6010  -12.9060    7.7250 C   0  0  0  0  0  0
  -13.4480  -12.1730    8.6180 O   0  0  0  0  0  0
  -12.3910  -14.9590    9.0200 O   0  0  0  0  0  0
  -11.6330  -16.0730    9.5060 C   0  0  1  0  0  0
  -10.3370  -16.2600    8.7480 C   0  0  2  0  0  0
   -9.5380  -17.3620    9.2510 O   0  0  0  0  0  0
   -9.5240  -14.9850    8.8510 C   0  0  1  0  0  0
   -8.3940  -15.1620    8.0260 O   0  0  0  0  0  0
  -11.3880  -15.8280   10.8830 O   0  0  0  0  0  0
  -12.1200  -16.6420   11.8110 C   0  0  2  0  0  0
  -13.1590  -15.8640   12.6340 C   0  0  1  0  0  0
  -14.3090  -15.3260   11.8050 C   0  0  0  0  0  0
  -14.7790  -16.3810   10.9540 O   0  0  0  0  0  0
  -13.7500  -16.7410   13.6000 O   0  0  0  0  0  0
  -12.8620  -17.3140   14.5450 C   0  0  1  0  0  0
  -11.8440  -18.1400   13.7730 C   0  0  2  0  0  0
  -10.8670  -18.7020   14.6400 O   0  0  0  0  0  0
  -11.1100  -17.2830   12.7530 C   0  0  1  0  0  0
  -10.1920  -18.1010   12.0220 O   0  0  0  0  0  0
  -12.1940  -16.2890   15.2590 O   0  0  0  0  0  0
  -12.5340  -16.0400   16.6160 C   0  0  2  0  0  0
  -13.2270  -14.6830   16.7950 C   0  0  2  0  0  0
  -13.4190  -14.3970   18.1810 O   0  0  0  0  0  0
  -14.5840  -14.6330   16.1570 C   0  0  0  0  0  0
  -15.3550  -15.6550   16.7880 O   0  0  0  0  0  0
  -11.2360  -16.0430   17.3870 C   0  0  2  0  0  0
  -10.5400  -17.2930   17.2710 O   0  0  0  0  0  0
  -11.5110  -15.7080   18.8440 C   0  0  1  0  0  0
  -10.2390  -15.6680   19.4860 O   0  0  0  0  0  0
  -12.2070  -14.3570   18.9240 C   0  0  1  0  0  0
  -11.2900  -13.4080   18.3670 O   0  0  0  0  0  0
  -11.1860  -12.2170   19.1080 C   0  0  1  0  0  0
  -12.6274   -8.2235    9.8747 H   0  0  0  0  0  0
  -10.5935   -8.1256    8.3083 H   0  0  0  0  0  0
  -10.0718   -8.0060   10.0230 H   0  0  0  0  0  0
   -9.8856  -10.5378    9.9396 H   0  0  0  0  0  0
   -7.9910   -8.7162    8.2970 H   0  0  0  0  0  0
   -6.8982   -7.4421    9.3281 H   0  0  0  0  0  0
   -5.1165   -7.1638   11.1464 H   0  0  0  0  0  0
   -4.6197   -9.0279    9.5600 H   0  0  0  0  0  0
   -6.5950   -9.4116   12.6183 H   0  0  0  0  0  0
   -4.1754   -9.3185   13.1376 H   0  0  0  0  0  0
   -8.8350   -8.1293   12.3345 H   0  0  0  0  0  0
   -9.3847   -6.0990   13.8025 H   0  0  0  0  0  0
   -8.7217   -5.0861   12.4754 H   0  0  0  0  0  0
  -11.2619   -5.5046   12.1025 H   0  0  0  0  0  0
   -6.5442   -6.3706   13.3096 H   0  0  0  0  0  0
   -6.7784   -5.9282   15.2419 H   0  0  0  0  0  0
   -6.2852   -6.8456   17.5045 H   0  0  0  0  0  0
   -4.4895   -7.2036   15.7701 H   0  0  0  0  0  0
   -7.2233   -9.5925   16.4404 H   0  0  0  0  0  0
   -5.4057   -9.6297   18.1444 H   0  0  0  0  0  0
   -9.2163   -8.4360   15.4507 H   0  0  0  0  0  0
  -11.1910   -7.0164   15.5650 H   0  0  0  0  0  0
  -11.3470   -8.4556   16.6285 H   0  0  0  0  0  0
  -11.9058   -6.3046   17.9406 H   0  0  0  0  0  0
   -8.7316   -7.7709   18.4541 H   0  0  0  0  0  0
   -9.9080   -8.6447   19.6592 H   0  0  0  0  0  0
   -9.8430  -10.6951   21.1146 H   0  0  0  0  0  0
   -7.6686   -9.5775   20.6774 H   0  0  0  0  0  0
   -9.1185  -12.1937   18.5604 H   0  0  0  0  0  0
   -8.3114  -13.2346   20.6745 H   0  0  0  0  0  0
  -11.2116  -11.0803   17.2924 H   0  0  0  0  0  0
  -13.4712  -11.9874   17.4806 H   0  0  0  0  0  0
  -13.7434  -11.0029   18.9582 H   0  0  0  0  0  0
  -14.4943   -9.6943   16.8561 H   0  0  0  0  0  0
   -9.9177  -12.1875    6.6908 H   0  0  0  0  0  0
   -7.7474  -10.8083    6.4875 H   0  0  0  0  0  0
   -7.5330  -13.2769    6.2842 H   0  0  0  0  0  0
   -7.3795  -11.4674    9.4327 H   0  0  0  0  0  0
   -5.4131   -9.8226    9.1745 H   0  0  0  0  0  0
  -10.2592  -13.9099    7.2066 H   0  0  0  0  0  0
  -11.6238  -13.2063    9.6697 H   0  0  0  0  0  0
  -11.9657  -12.2557    7.1058 H   0  0  0  0  0  0
  -13.1582  -13.5987    7.0771 H   0  0  0  0  0  0
  -14.2094  -11.4883    8.2161 H   0  0  0  0  0  0
  -12.2414  -16.9836    9.4027 H   0  0  0  0  0  0
  -10.5774  -16.5339    7.7101 H   0  0  0  0  0  0
   -9.9516  -18.3812    9.2618 H   0  0  0  0  0  0
   -9.2212  -14.7970    9.8917 H   0  0  0  0  0  0
   -7.6468  -14.3596    7.9371 H   0  0  0  0  0  0
  -12.6537  -17.3640   11.1755 H   0  0  0  0  0  0
  -12.6397  -15.0377   13.1415 H   0  0  0  0  0  0
  -15.1164  -14.9901   12.4723 H   0  0  0  0  0  0
  -13.9584  -14.4782   11.1981 H   0  0  0  0  0  0
  -15.6172  -16.1998   10.2651 H   0  0  0  0  0  0
  -13.4487  -17.8815   15.2824 H   0  0  0  0  0  0
  -12.3675  -18.9869   13.3054 H   0  0  0  0  0  0
  -11.1768  -19.3636   15.4623 H   0  0  0  0  0  0
  -10.4943  -16.5123   13.2397 H   0  0  0  0  0  0
   -9.5659  -17.6563   11.2344 H   0  0  0  0  0  0
  -13.2225  -16.8450   16.9125 H   0  0  0  0  0  0
  -12.5771  -13.9078   16.3630 H   0  0  0  0  0  0
  -15.0300  -13.6410   16.3212 H   0  0  0  0  0  0
  -14.4884  -14.8178   15.0769 H   0  0  0  0  0  0
  -16.4006  -15.8194   16.4883 H   0  0  0  0  0  0
  -10.5408  -15.3201   16.9352 H   0  0  0  0  0  0
  -10.2654  -17.6796   16.2784 H   0  0  0  0  0  0
  -12.1178  -16.4610   19.3681 H   0  0  0  0  0  0
   -9.6088  -16.5692   19.5147 H   0  0  0  0  0  0
  -12.5004  -14.0336   19.9336 H   0  0  0  0  0  0
  -11.7967  -12.2998   20.0192 H   0  0  0  0  0  0
  1  2  1  0  0  0
  1 78  1  0  0  0
  2  3  1  0  0  0
  2 79  1  0  0  0
  2 80  1  0  0  0
  3  4  1  0  0  0
  3 37  1  0  0  0
  3 81  1  0  0  0
  4  5  1  0  0  0
  4 41  1  0  0  0
  4 82  1  0  0  0
  5  6  1  0  0  0
  6  7  1  0  0  0
  6 11  1  0  0  0
  6 83  1  0  0  0
  7  8  1  0  0  0
  7  9  1  0  0  0
  7 84  1  0  0  0
  8 85  1  0  0  0
  9 10  1  0  0  0
  9 15  1  0  0  0
  9 86  1  0  0  0
 10 87  1  0  0  0
 11 12  1  0  0  0
 12 13  1  0  0  0
 12 15  1  0  0  0
 12 88  1  0  0  0
 13 14  1  0  0  0
 13 89  1  0  0  0
 13 90  1  0  0  0
 14 91  1  0  0  0
 15 16  1  0  0  0
 15 92  1  0  0  0
 16 17  1  0  0  0
 17 18  1  0  0  0
 17 22  1  0  0  0
 17 93  1  0  0  0
 18 19  1  0  0  0
 18 20  1  0  0  0
 18 94  1  0  0  0
 19 95  1  0  0  0
 20 21  1  0  0  0
 20 26  1  0  0  0
 20 96  1  0  0  0
 21 97  1  0  0  0
 22 23  1  0  0  0
 23 24  1  0  0  0
 23 26  1  0  0  0
 23 98  1  0  0  0
 24 25  1  0  0  0
 24 99  1  0  0  0
 24100  1  0  0  0
 25101  1  0  0  0
 26 27  1  0  0  0
 26102  1  0  0  0
 27 28  1  0  0  0
 28 29  1  0  0  0
 28 33  1  0  0  0
 28103  1  0  0  0
 29 30  1  0  0  0
 29 31  1  0  0  0
 29104  1  0  0  0
 30105  1  0  0  0
 31 32  1  0  0  0
 31 77  1  0  0  0
 31106  1  0  0  0
 32107  1  0  0  0
 33 34  1  0  0  0
 34 35  1  0  0  0
 34 77  1  0  0  0
 34108  1  0  0  0
 35 36  1  0  0  0
 35109  1  0  0  0
 35110  1  0  0  0
 36111  1  0  0  0
 37 38  1  0  0  0
 38 39  1  0  0  0
 38 43  1  0  0  0
 38112  1  0  0  0
 39 40  1  0  0  0
 39 41  1  0  0  0
 39113  1  0  0  0
 40114  1  0  0  0
 41 42  1  0  0  0
 41115  1  0  0  0
 42116  1  0  0  0
 43 44  1  0  0  0
 44 45  1  0  0  0
 44 52  1  0  0  0
 44117  1  0  0  0
 45 46  1  0  0  0
 45 48  1  0  0  0
 45118  1  0  0  0
 46 47  1  0  0  0
 46119  1  0  0  0
 46120  1  0  0  0
 47121  1  0  0  0
 48 49  1  0  0  0
 49 50  1  0  0  0
 49 54  1  0  0  0
 49122  1  0  0  0
 50 51  1  0  0  0
 50 52  1  0  0  0
 50123  1  0  0  0
 51124  1  0  0  0
 52 53  1  0  0  0
 52125  1  0  0  0
 53126  1  0  0  0
 54 55  1  0  0  0
 55 56  1  0  0  0
 55 63  1  0  0  0
 55127  1  0  0  0
 56 57  1  0  0  0
 56 59  1  0  0  0
 56128  1  0  0  0
 57 58  1  0  0  0
 57129  1  0  0  0
 57130  1  0  0  0
 58131  1  0  0  0
 59 60  1  0  0  0
 60 61  1  0  0  0
 60 65  1  0  0  0
 60132  1  0  0  0
 61 62  1  0  0  0
 61 63  1  0  0  0
 61133  1  0  0  0
 62134  1  0  0  0
 63 64  1  0  0  0
 63135  1  0  0  0
 64136  1  0  0  0
 65 66  1  0  0  0
 66 67  1  0  0  0
 66 71  1  0  0  0
 66137  1  0  0  0
 67 68  1  0  0  0
 67 69  1  0  0  0
 67138  1  0  0  0
 68 75  1  0  0  0
 69 70  1  0  0  0
 69139  1  0  0  0
 69140  1  0  0  0
 70141  1  0  0  0
 71 72  1  0  0  0
 71 73  1  0  0  0
 71142  1  0  0  0
 72143  1  0  0  0
 73 74  1  0  0  0
 73 75  1  0  0  0
 73144  1  0  0  0
 74145  1  0  0  0
 75 76  1  0  0  0
 75146  1  0  0  0
 76 77  1  0  0  0
 77147  1  0  0  0
M  END
> <s_m_source_file>
../4yef_ligand.sdf

> <i_m_source_file_index>
1

> <s_epik_input>
W09IXVtDSDJdW0NASF0oW0NAQEhdMTIpT1tDQEBIXShbQ0BIXShbT0hdKVtDQEhdMltPSF0pT1tDQEBIXTNbQ0BASF0oW0NIMl1bT0hdKU9bQ0BASF0oW0NASF0oW09IXSlbQ0BIXTNbT0hdKU9bQ0BASF00W0NAQEhdKFtDSDJdW09IXSlPW0NAQEhdKFtDQEhdKFtPSF0pW0NASF00W09IXSlPW0NAQEhdNVtDQEBIXShbQ0gyXVtPSF0pT1tDQEBIXShbQ0BIXShbT0hdKVtDQEhdNVtPSF0pT1tDQEhdNltDQEhdKFtPSF0pW0NAQEhdKFtPSF0pW0NASF0oT1tDQEBIXTZbQ0gyXVtPSF0pT1tDQEhdN1tDQEhdKFtPSF0pW0NAQEhdKFtPSF0pW0NASF0oT1tDQEBIXTdbQ0gyXVtPSF0pT1tDQEhdOFtDQEhdKFtPSF0pW0NAQEhdKFtPSF0pW0NAQEhdKE8xKU9bQ0BASF04W0NIMl1bT0hd

> <s_epik_cmdline>
J2VwaWtfYXBwJywgJy1pbWFlJywgJ2xpZ2FuZF9wcm8ubWFlJywgJy1vbWFlJywgJ2xpZ2FuZF9wcmVwLm1hZScsICctbXMnLCAnMScsICctcGgnLCAnNycsICctcGh0JywgJzAuNScsICctbnQn

> <r_lp_tautomer_probability>
1

> <r_epik_Ionization_Penalty>
  0.0000

> <r_epik_Ionization_Penalty_Charging>
  0.0000

> <r_epik_Ionization_Penalty_Neutral>
  0.0000

> <r_epik_State_Penalty>
 -0.0000

> <r_epik_Charging_Adjusted_Penalty>
0

> <i_epik_Tot_Q>
0

> <i_epik_Tot_abs_Q>
0

> <s_epik_Chemistry_Notes>
This compound contains an acetal/aminal-like group ( X-CH(R)-Y where X, Y are N, S, or O) that may be acid/base labile, releasing an aldehyde.

$$$$
