4yes_ligand
                    3D
 Schrodinger Suite 2020-3.
 49 51  0  0  1  0            999 V2000
    4.2200   19.8170   49.5520 C   0  0  0  0  0  0
    3.4920   18.9290   48.6850 C   0  0  0  0  0  0
    5.3360   20.1470   49.1810 O   0  0  0  0  0  0
    2.1650   18.5500   48.6220 C   0  0  0  0  0  0
    2.0160   17.6620   47.5280 C   0  0  0  0  0  0
    3.2540   17.5410   46.9350 C   0  0  0  0  0  0
    4.1280   18.3050   47.6530 N   0  0  0  0  0  0
    3.7120   16.7670   45.7770 C   0  0  0  0  0  0
    3.6510   20.2560   50.7350 N   0  0  0  0  0  0
    4.1950   21.3560   51.5060 C   0  0  2  0  0  0
    5.6950   21.2390   51.5730 C   0  0  0  0  0  0
    6.2950   20.2290   51.9240 O   0  0  0  0  0  0
    3.5800   21.1610   52.8730 C   0  0  0  0  0  0
    2.2260   20.5490   52.5860 C   0  0  0  0  0  0
    2.4850   19.6830   51.3790 C   0  0  0  0  0  0
    6.3120   22.4000   51.1470 N   0  0  0  0  0  0
    7.7430   22.5270   51.2630 C   0  0  0  0  0  0
    8.4980   22.5280   49.9720 C   0  0  0  0  0  0
    9.1980   21.4230   49.5200 C   0  0  0  0  0  0
    9.2060   20.1300   50.2780 C   0  0  0  0  0  0
    8.2080   19.1800   49.7090 N   0  3  0  0  0  0
    9.9240   21.4610   48.3480 C   0  0  0  0  0  0
    9.9720   22.6340   47.6080 C   0  0  0  0  0  0
    9.2500   23.7270   48.0400 C   0  0  0  0  0  0
    9.2710   25.1700   47.0540 Cl  0  0  0  0  0  0
    8.5290   23.6900   49.2160 C   0  0  0  0  0  0
    1.4456   18.9420   49.3560 H   0  0  0  0  0  0
    1.0962   17.1681   47.2147 H   0  0  0  0  0  0
    2.8615   16.2236   45.3396 H   0  0  0  0  0  0
    4.4808   16.0484   46.0972 H   0  0  0  0  0  0
    4.1373   17.4484   45.0255 H   0  0  0  0  0  0
    3.9601   22.3287   51.0493 H   0  0  0  0  0  0
    4.2175   20.4921   53.4698 H   0  0  0  0  0  0
    3.4947   22.1340   53.3789 H   0  0  0  0  0  0
    1.8948   19.9661   53.4581 H   0  0  0  0  0  0
    1.4983   21.3481   52.3814 H   0  0  0  0  0  0
    1.6348   19.7011   50.6813 H   0  0  0  0  0  0
    2.6996   18.6437   51.6685 H   0  0  0  0  0  0
    5.7194   23.2235   50.7220 H   0  0  0  0  0  0
    7.9875   23.4747   51.7651 H   0  0  0  0  0  0
    8.1391   21.6869   51.8524 H   0  0  0  0  0  0
   10.2056   19.6750   50.2163 H   0  0  0  0  0  0
    8.9546   20.3211   51.3317 H   0  0  0  0  0  0
    8.2305   18.2395   50.2791 H   0  0  0  0  0  0
    8.4541   18.9767   48.6563 H   0  0  0  0  0  0
    7.2030   19.6228   49.7717 H   0  0  0  0  0  0
   10.4572   20.5744   48.0048 H   0  0  0  0  0  0
   10.5711   22.6907   46.6992 H   0  0  0  0  0  0
    7.9845   24.5731   49.5502 H   0  0  0  0  0  0
  1  2  1  0  0  0
  1  3  2  0  0  0
  1  9  1  0  0  0
  2  4  2  0  0  0
  2  7  1  0  0  0
  4  5  1  0  0  0
  4 27  1  0  0  0
  5  6  1  0  0  0
  5 28  1  0  0  0
  6  7  2  0  0  0
  6  8  1  0  0  0
  8 29  1  0  0  0
  8 30  1  0  0  0
  8 31  1  0  0  0
  9 10  1  0  0  0
  9 15  1  0  0  0
 10 11  1  0  0  0
 10 13  1  0  0  0
 10 32  1  0  0  0
 11 12  2  0  0  0
 11 16  1  0  0  0
 13 14  1  0  0  0
 13 33  1  0  0  0
 13 34  1  0  0  0
 14 15  1  0  0  0
 14 35  1  0  0  0
 14 36  1  0  0  0
 15 37  1  0  0  0
 15 38  1  0  0  0
 16 17  1  0  0  0
 16 39  1  0  0  0
 17 18  1  0  0  0
 17 40  1  0  0  0
 17 41  1  0  0  0
 18 19  2  0  0  0
 18 26  1  0  0  0
 19 20  1  0  0  0
 19 22  1  0  0  0
 20 21  1  0  0  0
 20 42  1  0  0  0
 20 43  1  0  0  0
 21 44  1  0  0  0
 21 45  1  0  0  0
 21 46  1  0  0  0
 22 23  2  0  0  0
 22 47  1  0  0  0
 23 24  1  0  0  0
 23 48  1  0  0  0
 24 25  1  0  0  0
 24 26  2  0  0  0
 26 49  1  0  0  0
M  CHG  1  21   1
M  END
> <s_m_source_file>
../4yes_ligand.sdf

> <i_m_source_file_index>
1

> <s_epik_input>
TjE9QyhbQ0gzXSlbQ0gyXVtDSF09QzFDKD1PKU4yW0NAQEhdKFtDSDJdW0NIMl1bQ0gyXTIpQyg9TylbTkhdW0NIMl1jM2MoW0NIMl1bTkgzK10pW2NIXVtjSF1jKENsKVtjSF0z

> <s_epik_cmdline>
J2VwaWtfYXBwJywgJy1pbWFlJywgJ2xpZ2FuZF9wcm8ubWFlJywgJy1vbWFlJywgJ2xpZ2FuZF9wcmVwLm1hZScsICctbXMnLCAnMScsICctcGgnLCAnNycsICctcGh0JywgJzAuNScsICctbnQn

> <r_epik_Ionization_Penalty>
  0.0304

> <r_epik_Ionization_Penalty_Charging>
  0.0304

> <r_epik_Ionization_Penalty_Neutral>
  0.0000

> <r_epik_State_Penalty>
  0.0250

> <r_epik_Charging_Adjusted_Penalty>
0.0554126390800802

> <i_epik_Tot_Q>
1

> <i_epik_Tot_abs_Q>
1

> <s_epik_Chemistry_Notes>
This compound has an imine and may undergo hydrolysis.

$$$$
