4yff_ligand
                    3D
 Schrodinger Suite 2020-3.
 46 49  0  0  1  0            999 V2000
   46.6320    9.4650   84.2960 C   0  0  0  0  0  0
   43.9440    7.0170   84.8530 C   0  0  0  0  0  0
   44.1350    7.3740   82.5380 C   0  0  0  0  0  0
   47.7240    9.2730   85.1380 C   0  0  0  0  0  0
   50.3430    8.0900   88.3730 C   0  0  0  0  0  0
   48.0310    5.1160   87.0050 C   0  0  0  0  0  0
   48.7230    6.3330   87.2790 C   0  0  0  0  0  0
   51.7810   12.4030   84.1080 C   0  0  0  0  0  0
   50.9210   12.1840   85.2890 N   0  0  3  0  0  0
   49.3670   12.9250   85.2010 S   0  0  0  0  0  0
   49.0060   13.3050   86.5580 O   0  0  0  0  0  0
   49.2430   13.8570   84.0810 O   0  0  0  0  0  0
   48.3090   11.5620   84.8380 C   0  0  0  0  0  0
   47.2440   11.7730   84.0010 C   0  0  0  0  0  0
   46.4010   10.7120   83.7360 C   0  0  0  0  0  0
   45.7570    8.3860   84.0140 N   0  0  0  0  0  0
   44.8610    8.1890   85.1540 C   0  0  0  0  0  0
   43.2250    7.2620   83.6400 O   0  0  0  0  0  0
   45.0400    8.5780   82.7560 C   0  0  0  0  0  0
   47.9380    7.9890   85.6860 N   0  0  0  0  0  0
   48.7590    7.6300   86.7680 C   0  0  3  0  0  0
   49.5970    8.5000   87.3410 N   0  0  0  0  0  0
   50.3920    6.8880   88.9590 N   0  0  0  0  0  0
   49.5490    6.0460   88.3530 C   0  0  0  0  0  0
   49.3640    4.7370   88.7030 N   0  0  0  0  0  0
   48.4370    4.1510   87.8880 C   0  0  0  0  0  0
   46.7430    4.8400   85.6340 Br  0  0  0  0  0  0
   48.5660   10.3380   85.4070 C   0  0  0  0  0  0
   44.5436    6.1016   84.7414 H   0  0  0  0  0  0
   43.2294    6.8888   85.6794 H   0  0  0  0  0  0
   44.7450    6.4610   82.4720 H   0  0  0  0  0  0
   43.5669    7.5036   81.6050 H   0  0  0  0  0  0
   51.0396    8.7884   88.8599 H   0  0  0  0  0  0
   52.7451   11.8949   84.2572 H   0  0  0  0  0  0
   51.9517   13.4813   83.9737 H   0  0  0  0  0  0
   51.2865   11.9959   83.2138 H   0  0  0  0  0  0
   51.2186   11.4568   86.0589 H   0  0  0  0  0  0
   47.0673   12.7524   83.5564 H   0  0  0  0  0  0
   45.5436   10.8566   83.0786 H   0  0  0  0  0  0
   44.2576    9.0943   85.3167 H   0  0  0  0  0  0
   45.4482    7.9723   86.0586 H   0  0  0  0  0  0
   45.7529    8.6566   81.9220 H   0  0  0  0  0  0
   44.4295    9.4918   82.8038 H   0  0  0  0  0  0
   47.4260    7.1153   85.2564 H   0  0  0  0  0  0
   48.1673    3.0944   88.0324 H   0  0  0  0  0  0
   49.4255   10.2069   86.0645 H   0  0  0  0  0  0
  1  4  2  0  0  0
  1 15  1  0  0  0
  1 16  1  0  0  0
  2 17  1  0  0  0
  2 18  1  0  0  0
  2 29  1  0  0  0
  2 30  1  0  0  0
  3 18  1  0  0  0
  3 19  1  0  0  0
  3 31  1  0  0  0
  3 32  1  0  0  0
  4 20  1  0  0  0
  4 28  1  0  0  0
  5 22  2  0  0  0
  5 23  1  0  0  0
  5 33  1  0  0  0
  6  7  2  0  0  0
  6 26  1  0  0  0
  6 27  1  0  0  0
  7 21  1  0  0  0
  7 24  1  0  0  0
  8  9  1  0  0  0
  8 34  1  0  0  0
  8 35  1  0  0  0
  8 36  1  0  0  0
  9 10  1  0  0  0
  9 37  1  0  0  0
 10 11  2  0  0  0
 10 12  2  0  0  0
 10 13  1  0  0  0
 13 14  1  0  0  0
 13 28  2  0  0  0
 14 15  2  0  0  0
 14 38  1  0  0  0
 15 39  1  0  0  0
 16 17  1  0  0  0
 16 19  1  0  0  0
 17 40  1  0  0  0
 17 41  1  0  0  0
 19 42  1  0  0  0
 19 43  1  0  0  0
 20 21  1  0  0  0
 20 44  1  0  0  0
 21 22  1  0  0  0
 23 24  2  0  0  0
 24 25  1  0  0  0
 25 26  2  0  0  0
 26 45  1  0  0  0
 28 46  1  0  0  0
M  END
> <s_m_source_file>
../4yff_ligand.sdf

> <i_m_source_file_index>
1

> <s_epik_input>
W0NIMl0xW0NIMl1PW0NIMl1bQ0gyXU4xYzJjKFtjSF1jKFtjSF1bY0hdMilTKD1PKSg9TylbTkhdW0NIM10pW05IXVtDSF0zTj1bQ0hdTj1DKEMzNClOPVtDSF1DPTRCcg==

> <s_epik_cmdline>
J2VwaWtfYXBwJywgJy1pbWFlJywgJ2xpZ2FuZF9wcm8ubWFlJywgJy1vbWFlJywgJ2xpZ2FuZF9wcmVwLm1hZScsICctbXMnLCAnMScsICctcGgnLCAnNycsICctcGh0JywgJzAuNScsICctbnQn

> <r_epik_Ionization_Penalty>
  0.0778

> <r_epik_Ionization_Penalty_Charging>
  0.0000

> <r_epik_Ionization_Penalty_Neutral>
  0.0778

> <r_epik_State_Penalty>
  0.0687

> <r_epik_Charging_Adjusted_Penalty>
0.0686632733354902

> <i_epik_Tot_Q>
0

> <i_epik_Tot_abs_Q>
0

> <s_epik_Chemistry_Notes>
This compound has an imine and may undergo hydrolysis.

$$$$
