4yfi_ligand
                    3D
 Schrodinger Suite 2020-3.
 33 35  0  0  1  0            999 V2000
   11.8980   20.1570   10.9060 N   0  0  0  0  0  0
   11.8150   18.8360   11.4030 C   0  0  0  0  0  0
   10.5470   17.3730   12.8730 C   0  0  0  0  0  0
   12.5220   16.5800   11.7680 C   0  0  0  0  0  0
   11.4430   16.3220   12.6160 C   0  0  0  0  0  0
   12.8070   20.5950    9.9260 C   0  0  0  0  0  0
   11.9150   23.9340    8.8790 C   0  0  0  0  0  0
   13.5020   22.3470    8.4490 C   0  0  0  0  0  0
   12.7490   17.8130   11.1310 C   0  0  0  0  0  0
   15.6400   16.3500   12.6720 C   0  0  0  0  0  0
   15.2320   15.8500   11.3400 N   0  0  3  0  0  0
   13.6280   15.1960   11.4230 S   0  0  0  0  0  0
   13.3090   14.7750   10.0650 O   0  0  0  0  0  0
   13.4620   14.1380   12.4650 O   0  0  0  0  0  0
   10.7320   18.6120   12.2530 C   0  0  0  0  0  0
   13.8260   19.8410    9.5320 N   0  0  0  0  0  0
   14.6670   20.2980    8.5750 C   0  0  0  0  0  0
   14.5060   21.5500    8.0570 N   0  0  0  0  0  0
   13.0720   23.6730    8.1090 N   0  3  0  0  0  0
   11.6310   22.8790    9.6730 N   0  0  0  0  0  0
   12.5960   21.8650    9.4100 C   0  0  0  0  0  0
   11.2178   20.9323   11.2884 H   0  0  0  0  0  0
    9.7095   17.2226   13.5543 H   0  0  0  0  0  0
   11.3008   15.3383   13.0634 H   0  0  0  0  0  0
   11.3347   24.8558    8.8376 H   0  0  0  0  0  0
   13.5977   17.9699   10.4652 H   0  0  0  0  0  0
   16.6577   16.7633   12.6126 H   0  0  0  0  0  0
   15.6222   15.5218   13.3957 H   0  0  0  0  0  0
   14.9433   17.1365   12.9976 H   0  0  0  0  0  0
   15.8470   16.0747   10.4561 H   0  0  0  0  0  0
   10.0189   19.4156   12.4366 H   0  0  0  0  0  0
   15.4769   19.6627    8.2163 H   0  0  0  0  0  0
   13.4573   24.4378    7.4186 H   0  0  0  0  0  0
  1  2  1  0  0  0
  1  6  1  0  0  0
  1 22  1  0  0  0
  2  9  2  0  0  0
  2 15  1  0  0  0
  3  5  1  0  0  0
  3 15  2  0  0  0
  3 23  1  0  0  0
  4  5  2  0  0  0
  4  9  1  0  0  0
  4 12  1  0  0  0
  5 24  1  0  0  0
  6 16  2  0  0  0
  6 21  1  0  0  0
  7 19  2  0  0  0
  7 20  1  0  0  0
  7 25  1  0  0  0
  8 18  1  0  0  0
  8 19  1  0  0  0
  8 21  2  0  0  0
  9 26  1  0  0  0
 10 11  1  0  0  0
 10 27  1  0  0  0
 10 28  1  0  0  0
 10 29  1  0  0  0
 11 12  1  0  0  0
 11 30  1  0  0  0
 12 13  2  0  0  0
 12 14  2  0  0  0
 15 31  1  0  0  0
 16 17  1  0  0  0
 17 18  2  0  0  0
 17 32  1  0  0  0
 19 33  1  0  0  0
 20 21  1  0  0  0
M  CHG  1  19   1
M  END
> <s_m_source_file>
../4yfi_ligand.sdf

> <i_m_source_file_index>
1

> <s_epik_input>
bjFbY0hdW25IXWMoYzEyKWMobltjSF1uMilbTkhdYzNbY0hdYyhbY0hdW2NIXVtjSF0zKVMoPU8pKD1PKVtOSF1bQ0gzXQ==

> <s_epik_cmdline>
J2VwaWtfYXBwJywgJy1pbWFlJywgJ2xpZ2FuZF9wcm8ubWFlJywgJy1vbWFlJywgJ2xpZ2FuZF9wcmVwLm1hZScsICctbXMnLCAnMScsICctcGgnLCAnNycsICctcGh0JywgJzAuNScsICctbnQn

> <r_lp_tautomer_probability>
1

> <r_epik_Ionization_Penalty>
  0.0239

> <r_epik_Ionization_Penalty_Charging>
  0.0000

> <r_epik_Ionization_Penalty_Neutral>
  0.0239

> <r_epik_State_Penalty>
 -0.0000

> <r_epik_Charging_Adjusted_Penalty>
0

> <i_epik_Tot_Q>
1

> <i_epik_Tot_abs_Q>
1

$$$$
