4yha_ligand
                    3D
 Schrodinger Suite 2020-3.
 23 23  0  0  1  0            999 V2000
   50.6560   41.0620   91.0810 N   0  0  0  0  0  0
   52.2830   41.1310   90.8950 S   0  0  0  0  0  0
   52.8930   41.8310   91.9820 O   0  0  0  0  0  0
   52.8650   39.8340   90.9260 O   0  0  0  0  0  0
   52.6690   41.9830   89.4110 C   0  0  0  0  0  0
   53.3580   43.3390   89.3260 S   0  0  0  0  0  0
   53.4560   43.7000   87.8430 C   0  0  0  0  0  0
   52.8840   42.6250   87.1270 N   0  0  0  0  0  0
   52.7770   42.5420   85.7210 C   0  0  0  0  0  0
   52.3790   41.5280   88.1220 N   0  0  0  0  0  0
   54.0220   44.8670   87.2420 N   0  0  0  0  0  0
   54.6060   45.9780   87.9280 C   0  0  0  0  0  0
   54.6690   46.0320   89.1350 O   0  3  0  0  0  0
   55.1590   47.1480   87.1420 C   0  0  0  0  0  0
   50.4157   40.5275   92.0119 H   0  0  0  0  0  0
   50.2116   40.5295   90.2272 H   0  0  0  0  0  0
   53.2098   43.4453   85.2664 H   0  0  0  0  0  0
   51.7171   42.4609   85.4381 H   0  0  0  0  0  0
   53.3208   41.6551   85.3636 H   0  0  0  0  0  0
   55.0333   46.9588   86.0657 H   0  0  0  0  0  0
   56.2280   47.2706   87.3704 H   0  0  0  0  0  0
   54.6174   48.0645   87.4189 H   0  0  0  0  0  0
   55.1165   46.9100   89.6237 H   0  0  0  0  0  0
  1  2  1  0  0  0
  1 15  1  0  0  0
  1 16  1  0  0  0
  2  3  2  0  0  0
  2  4  2  0  0  0
  2  5  1  0  0  0
  5  6  1  0  0  0
  5 10  2  0  0  0
  6  7  1  0  0  0
  7  8  1  0  0  0
  7 11  2  0  0  0
  8  9  1  0  0  0
  8 10  1  0  0  0
  9 17  1  0  0  0
  9 18  1  0  0  0
  9 19  1  0  0  0
 11 12  1  0  0  0
 12 13  2  0  0  0
 12 14  1  0  0  0
 13 23  1  0  0  0
 14 20  1  0  0  0
 14 21  1  0  0  0
 14 22  1  0  0  0
M  CHG  1  13   1
M  END
> <s_m_source_file>
../4yha_ligand.sdf

> <i_m_source_file_index>
1

> <s_epik_input>
W05IMl1TKD1PKSg9TyljMXNjKFtuK10objEpW0NIM10pW05IXUMoPU8pW0NIM10=

> <s_epik_cmdline>
J2VwaWtfYXBwJywgJy1pbWFlJywgJ2xpZ2FuZF9wcm8ubWFlJywgJy1vbWFlJywgJ2xpZ2FuZF9wcmVwLm1hZScsICctbXMnLCAnMScsICctcGgnLCAnNycsICctcGh0JywgJzAuNScsICctbnQn

> <r_epik_Ionization_Penalty>
  1.4090

> <r_epik_Ionization_Penalty_Charging>
  1.3432

> <r_epik_Ionization_Penalty_Neutral>
  0.0658

> <r_epik_State_Penalty>
  0.3660

> <r_epik_Charging_Adjusted_Penalty>
1.70925530267399

> <i_epik_Tot_Q>
1

> <i_epik_Tot_abs_Q>
1

$$$$
