4yhf_ligand
                    3D
 Schrodinger Suite 2020-3.
 72 76  0  0  1  0            999 V2000
   -9.8750  -14.7390  -12.4650 C   0  0  0  0  0  0
  -11.1020  -14.1400  -13.7410 C   0  0  0  0  0  0
  -10.3800  -13.8430  -15.1300 C   0  0  0  0  0  0
   -7.4700  -13.8710  -12.9300 C   0  0  0  0  0  0
   -9.7860  -18.1110   -1.8520 C   0  0  0  0  0  0
  -10.6970  -18.7010   -0.9720 C   0  0  0  0  0  0
  -13.4310  -21.0270   -0.7220 C   0  0  0  0  0  0
  -12.7260  -22.1350   -1.2230 C   0  0  0  0  0  0
   -5.2560  -18.4030   -4.7020 N   0  0  0  0  0  0
   -6.6400  -19.3960   -3.1350 N   0  0  0  0  0  0
   -6.5190  -18.4750   -4.1340 C   0  0  0  0  0  0
   -7.5910  -17.6410   -4.5770 C   0  0  0  0  0  0
   -7.2200  -16.7660   -5.6350 C   0  0  0  0  0  0
   -8.3740  -15.9810   -5.9280 N   0  0  0  0  0  0
   -8.5030  -15.0020   -7.0210 C   0  0  1  0  0  0
   -8.7170  -15.7170   -8.3730 C   0  0  0  0  0  0
   -8.9790  -14.7960   -9.5030 N   0  0  0  0  0  0
   -8.3490  -14.8720  -10.7280 C   0  0  0  0  0  0
   -8.5670  -14.0850  -12.0330 C   0  0  2  0  0  0
  -11.8130  -12.7430  -13.1480 C   0  0  0  0  0  0
  -12.2510  -15.2640  -13.9490 C   0  0  0  0  0  0
   -6.5290  -13.6830  -13.6220 N   0  0  0  0  0  0
   -7.4940  -15.7880  -10.8680 O   0  0  0  0  0  0
  -10.0280  -13.8010   -9.1790 C   0  0  0  0  0  0
   -9.7550  -13.0720   -7.8850 C   0  0  0  0  0  0
   -9.7420  -14.1020   -6.7970 C   0  0  0  0  0  0
   -9.4400  -16.4100   -5.1360 N   0  0  0  0  0  0
   -9.0320  -17.3910   -4.2760 C   0  0  0  0  0  0
   -9.9620  -18.0260   -3.2480 C   0  0  0  0  0  0
  -11.8980  -19.2650   -1.3860 C   0  0  0  0  0  0
  -12.7450  -19.8300   -0.4290 O   0  0  0  0  0  0
  -14.8200  -21.1730   -0.5270 C   0  0  0  0  0  0
  -15.4370  -22.3860   -0.8310 C   0  0  0  0  0  0
  -14.7430  -23.4840   -1.3290 C   0  0  0  0  0  0
  -13.3680  -23.3430   -1.5230 C   0  0  0  0  0  0
  -12.1300  -19.2030   -2.7720 C   0  0  0  0  0  0
  -11.1940  -18.6020   -3.6480 C   0  0  0  0  0  0
   -5.9790  -16.6690   -6.2230 N   0  0  0  0  0  0
   -5.0540  -17.5220   -5.6990 C   0  0  0  0  0  0
   -9.6679  -15.7404  -12.8704 H   0  0  0  0  0  0
  -10.5455  -14.8262  -11.5973 H   0  0  0  0  0  0
   -9.6016  -13.0798  -14.9828 H   0  0  0  0  0  0
  -11.1199  -13.4766  -15.8569 H   0  0  0  0  0  0
   -9.9201  -14.7675  -15.5092 H   0  0  0  0  0  0
   -8.8753  -17.6867   -1.4293 H   0  0  0  0  0  0
  -10.4541  -18.7199    0.0904 H   0  0  0  0  0  0
  -11.6509  -22.0518   -1.3823 H   0  0  0  0  0  0
   -5.7734  -20.0069   -2.8423 H   0  0  0  0  0  0
   -7.6042  -19.5277   -2.6222 H   0  0  0  0  0  0
   -7.5599  -14.4364   -6.9961 H   0  0  0  0  0  0
   -7.8178  -16.2973   -8.6273 H   0  0  0  0  0  0
   -9.5808  -16.3938   -8.2972 H   0  0  0  0  0  0
   -8.5733  -12.9852  -12.0115 H   0  0  0  0  0  0
  -11.0417  -11.9723  -13.0028 H   0  0  0  0  0  0
  -12.3006  -12.9596  -12.1861 H   0  0  0  0  0  0
  -12.5633  -12.3802  -13.8660 H   0  0  0  0  0  0
  -11.7954  -16.1864  -14.3384 H   0  0  0  0  0  0
  -13.0000  -14.8945  -14.6648 H   0  0  0  0  0  0
  -12.7374  -15.4739  -12.9849 H   0  0  0  0  0  0
  -10.0846  -13.0528   -9.9833 H   0  0  0  0  0  0
  -10.9986  -14.3096   -9.0824 H   0  0  0  0  0  0
   -8.7824  -12.5622   -7.9495 H   0  0  0  0  0  0
  -10.5472  -12.3295   -7.7082 H   0  0  0  0  0  0
  -10.6537  -14.7161   -6.8389 H   0  0  0  0  0  0
   -9.6707  -13.6185   -5.8116 H   0  0  0  0  0  0
  -15.4088  -20.3412   -0.1403 H   0  0  0  0  0  0
  -16.5113  -22.4780   -0.6713 H   0  0  0  0  0  0
  -15.2537  -24.4191   -1.5590 H   0  0  0  0  0  0
  -12.7887  -24.1806   -1.9115 H   0  0  0  0  0  0
  -13.0482  -19.6259   -3.1796 H   0  0  0  0  0  0
  -11.4392  -18.5806   -4.7099 H   0  0  0  0  0  0
   -4.0532  -17.4872   -6.1294 H   0  0  0  0  0  0
  1 19  1  0  0  0
  1  2  1  0  0  0
  1 40  1  0  0  0
  1 41  1  0  0  0
  2  3  1  0  0  0
  2 20  1  0  0  0
  2 21  1  0  0  0
  3 42  1  0  0  0
  3 43  1  0  0  0
  3 44  1  0  0  0
  4 19  1  0  0  0
  4 22  3  0  0  0
  5  6  2  0  0  0
  5 29  1  0  0  0
  5 45  1  0  0  0
  6 30  1  0  0  0
  6 46  1  0  0  0
  7  8  2  0  0  0
  7 31  1  0  0  0
  7 32  1  0  0  0
  8 35  1  0  0  0
  8 47  1  0  0  0
  9 11  1  0  0  0
  9 39  2  0  0  0
 10 11  1  0  0  0
 10 48  1  0  0  0
 10 49  1  0  0  0
 11 12  2  0  0  0
 12 13  1  0  0  0
 12 28  1  0  0  0
 13 14  1  0  0  0
 13 38  2  0  0  0
 14 15  1  0  0  0
 14 27  1  0  0  0
 15 16  1  0  0  0
 15 26  1  0  0  0
 15 50  1  0  0  0
 16 17  1  0  0  0
 16 51  1  0  0  0
 16 52  1  0  0  0
 17 18  1  0  0  0
 17 24  1  0  0  0
 18 19  1  0  0  0
 18 23  2  0  0  0
 19 53  1  0  0  0
 20 54  1  0  0  0
 20 55  1  0  0  0
 20 56  1  0  0  0
 21 57  1  0  0  0
 21 58  1  0  0  0
 21 59  1  0  0  0
 24 25  1  0  0  0
 24 60  1  0  0  0
 24 61  1  0  0  0
 25 26  1  0  0  0
 25 62  1  0  0  0
 25 63  1  0  0  0
 26 64  1  0  0  0
 26 65  1  0  0  0
 27 28  2  0  0  0
 28 29  1  0  0  0
 29 37  2  0  0  0
 30 31  1  0  0  0
 30 36  2  0  0  0
 32 33  2  0  0  0
 32 66  1  0  0  0
 33 34  1  0  0  0
 33 67  1  0  0  0
 34 35  2  0  0  0
 34 68  1  0  0  0
 35 69  1  0  0  0
 36 37  1  0  0  0
 36 70  1  0  0  0
 37 71  1  0  0  0
 38 39  1  0  0  0
 39 72  1  0  0  0
M  END
> <s_m_source_file>
../4yhf_ligand.sdf

> <i_m_source_file_index>
1

> <s_epik_input>
W0NIM11DKFtDSDNdKShbQ0gzXSlbQ0gyXVtDQEhdKEMjTilDKD1PKU4oW0NIMl1bQ0gyXVtDSDJdMSlbQ0gyXVtDQEBIXTFuKGMoYzIzKW5bY0hdbmMyW05IMl0pbmMzLWM0W2NIXVtjSF1jKFtjSF1bY0hdNClPYzVbY0hdW2NIXVtjSF1bY0hdW2NIXTU=

> <s_epik_cmdline>
J2VwaWtfYXBwJywgJy1pbWFlJywgJ2xpZ2FuZF9wcm8ubWFlJywgJy1vbWFlJywgJ2xpZ2FuZF9wcmVwLm1hZScsICctbXMnLCAnMScsICctcGgnLCAnNycsICctcGh0JywgJzAuNScsICctbnQn

> <r_lp_tautomer_probability>
1

> <r_epik_Ionization_Penalty>
  0.0008

> <r_epik_Ionization_Penalty_Charging>
  0.0000

> <r_epik_Ionization_Penalty_Neutral>
  0.0008

> <r_epik_State_Penalty>
 -0.0000

> <r_epik_Charging_Adjusted_Penalty>
0

> <i_epik_Tot_Q>
0

> <i_epik_Tot_abs_Q>
0

$$$$
