4yih_ligand
                    3D
 Schrodinger Suite 2020-3.
 49 52  0  0  1  0            999 V2000
   -6.0620    0.6540   -6.5010 C   0  0  0  0  0  0
   -6.5130   -0.3350   -7.3900 C   0  0  0  0  0  0
   -7.7390   -0.9920   -7.2250 C   0  0  0  0  0  0
   -8.5290   -0.6540   -6.1300 C   0  0  0  0  0  0
   -8.0430    0.3280   -5.1910 C   0  0  0  0  0  0
   -6.8000    0.9570   -5.3620 C   0  0  0  0  0  0
   -6.3600    1.9130   -4.4440 C   0  0  2  0  0  0
   -4.9130    1.2680   -3.3800 P   0  0  0  0  0  0
   -4.3910    2.2720   -2.4810 O   0  0  0  0  0  0
   -5.5100    0.1690   -2.6070 O   0  5  0  0  0  0
   -3.8800    0.7240   -4.3960 O   0  5  0  0  0  0
   -7.6370    2.4460   -3.7480 O   0  0  0  0  0  0
   -5.8770    3.0640   -5.2000 O   0  0  0  0  0  0
   -5.6120    4.1990   -4.3320 C   0  0  0  0  0  0
   -6.6690    4.3590   -3.2370 C   0  0  1  0  0  0
   -7.8590    5.1270   -3.8560 O   0  0  0  0  0  0
   -7.3200    3.1680   -2.6910 C   0  0  1  0  0  0
   -8.6700    3.8510   -2.1240 C   0  0  0  0  0  0
   -8.9870    4.8580   -3.0370 C   0  0  2  0  0  0
  -10.0440    4.4620   -3.9680 N   0  0  0  0  0  0
   -9.6910    3.9310   -5.1910 C   0  0  0  0  0  0
  -11.3330    4.7320   -3.6640 C   0  0  0  0  0  0
  -11.6520    5.2490   -2.5900 O   0  0  0  0  0  0
  -12.3290    4.3900   -4.5750 N   0  0  0  0  0  0
  -11.9880    3.7850   -5.7800 C   0  0  0  0  0  0
  -12.9360    3.4870   -6.5200 O   0  0  0  0  0  0
  -10.6420    3.5600   -6.0920 C   0  0  0  0  0  0
  -10.1630    2.9240   -7.2410 C   0  0  0  0  0  0
  -11.0760    2.7990   -8.3860 C   0  0  0  0  0  0
  -10.6170    2.0730   -9.6790 P   0  0  0  0  0  0
  -11.0550    0.7040   -9.6180 O   0  0  0  0  0  0
  -11.4050    2.7320  -10.7250 O   0  5  0  0  0  0
   -9.1940    2.3130   -9.7790 O   0  5  0  0  0  0
   -5.1320    1.1850   -6.7040 H   0  0  0  0  0  0
   -5.8854   -0.6014   -8.2404 H   0  0  0  0  0  0
   -8.0665   -1.7497   -7.9369 H   0  0  0  0  0  0
   -9.5013   -1.1246   -5.9838 H   0  0  0  0  0  0
   -8.6561    0.5876   -4.3280 H   0  0  0  0  0  0
   -4.6355    4.0666   -3.8432 H   0  0  0  0  0  0
   -5.6008    5.1227   -4.9293 H   0  0  0  0  0  0
   -6.1027    4.7801   -2.3933 H   0  0  0  0  0  0
   -6.7168    2.4840   -2.0759 H   0  0  0  0  0  0
   -9.4668    3.0949   -2.0656 H   0  0  0  0  0  0
   -8.4800    4.2616   -1.1214 H   0  0  0  0  0  0
   -9.2790    5.7113   -2.4072 H   0  0  0  0  0  0
   -8.6370    3.8067   -5.4395 H   0  0  0  0  0  0
  -13.3834    4.5984   -4.3411 H   0  0  0  0  0  0
   -9.1406    2.5236   -7.3065 H   0  0  0  0  0  0
  -12.0902    3.2210   -8.3293 H   0  0  0  0  0  0
  1  2  2  0  0  0
  1  6  1  0  0  0
  1 34  1  0  0  0
  2  3  1  0  0  0
  2 35  1  0  0  0
  3  4  2  0  0  0
  3 36  1  0  0  0
  4  5  1  0  0  0
  4 37  1  0  0  0
  5  6  2  0  0  0
  5 38  1  0  0  0
  6  7  1  0  0  0
  7  8  1  0  0  0
  7 12  1  0  0  0
  7 13  1  0  0  0
  8  9  2  0  0  0
  8 10  1  0  0  0
  8 11  1  0  0  0
 12 17  1  0  0  0
 13 14  1  0  0  0
 14 15  1  0  0  0
 14 39  1  0  0  0
 14 40  1  0  0  0
 15 16  1  0  0  0
 15 17  1  0  0  0
 15 41  1  0  0  0
 16 19  1  0  0  0
 17 18  1  0  0  0
 17 42  1  0  0  0
 18 19  1  0  0  0
 18 43  1  0  0  0
 18 44  1  0  0  0
 19 20  1  0  0  0
 19 45  1  0  0  0
 20 21  1  0  0  0
 20 22  1  0  0  0
 21 27  2  0  0  0
 21 46  1  0  0  0
 22 23  2  0  0  0
 22 24  1  0  0  0
 24 25  1  0  0  0
 24 47  1  0  0  0
 25 26  2  0  0  0
 25 27  1  0  0  0
 27 28  1  0  0  0
 28 29  2  0  0  0
 28 48  1  0  0  0
 29 30  1  0  0  0
 29 49  1  0  0  0
 30 31  2  0  0  0
 30 32  1  0  0  0
 30 33  1  0  0  0
M  CHG  4  10  -1  11  -1  32  -1  33  -1
M  END
> <s_m_source_file>
../4yih_ligand.sdf

> <i_m_source_file_index>
1

> <s_epik_input>
W2NIXTFbY0hdW2NIXVtjSF1bY0hdYzFbQ0BAXShQKD1PKShbT0hdKVtPSF0pKE9bQ0gyXTIpT1tDQEBIXShbQ0BASF0yMylbQ0gyXVtDQEBIXShPMyluNFtjSF1jKGMoPU8pW25IXWM0PU8pL1tDSF09W0NIXS9QKD1PKShbT0hdKVtPSF0=

> <s_epik_cmdline>
J2VwaWtfYXBwJywgJy1pbWFlJywgJ2xpZ2FuZF9wcm8ubWFlJywgJy1vbWFlJywgJ2xpZ2FuZF9wcmVwLm1hZScsICctbXMnLCAnMScsICctcGgnLCAnNycsICctcGh0JywgJzAuNScsICctbnQn

> <r_lp_tautomer_probability>
1

> <r_epik_Ionization_Penalty>
  0.4786

> <r_epik_Ionization_Penalty_Charging>
  0.4786

> <r_epik_Ionization_Penalty_Neutral>
  0.0000

> <r_epik_State_Penalty>
 -0.0000

> <r_epik_Charging_Adjusted_Penalty>
0.478647781029832

> <i_epik_Tot_Q>
-4

> <i_epik_Tot_abs_Q>
4

> <s_epik_Chemistry_Notes>
This compound contains an acetal/aminal-like group ( X-CH(R)-Y where X, Y are N, S, or O) that may be acid/base labile, releasing an aldehyde.

$$$$
