4yik_ligand
                    3D
 Schrodinger Suite 2020-3.
 49 52  0  0  1  0            999 V2000
   -4.8530   22.7670   29.0410 C   0  0  0  0  0  0
   -4.6420   21.4780   28.6220 C   0  0  0  0  0  0
   -3.6970   20.7230   29.2960 C   0  0  0  0  0  0
   -2.9810   21.2270   30.3760 C   0  0  0  0  0  0
   -3.2070   22.5400   30.8090 C   0  0  0  0  0  0
   -4.1700   23.3030   30.1310 C   0  0  0  0  0  0
   -4.5190   24.7490   30.5300 C   0  0  2  0  0  0
   -5.8180   24.6920   31.8760 P   0  0  0  0  0  0
   -5.0310   24.1270   33.0990 O   0  5  0  0  0  0
   -6.4330   26.1470   32.0900 O   0  5  0  0  0  0
   -6.8710   23.6810   31.5610 O   0  0  0  0  0  0
   -4.9710   25.3550   29.3110 O   0  0  0  0  0  0
   -3.3590   25.4070   30.9660 O   0  0  0  0  0  0
   -3.4730   26.8550   31.0480 C   0  0  0  0  0  0
   -4.0730   27.4390   29.9090 C   0  0  1  0  0  0
   -3.0820   27.5930   28.8950 O   0  0  0  0  0  0
   -5.1720   26.7500   29.2800 C   0  0  1  0  0  0
   -5.0860   27.2570   27.8380 C   0  0  0  0  0  0
   -3.6180   27.8430   27.7310 C   0  0  2  0  0  0
   -2.8240   27.0890   26.7200 N   0  0  0  0  0  0
   -3.2200   25.7910   26.2030 C   0  0  0  0  0  0
   -1.7250   27.6550   26.2450 C   0  0  0  0  0  0
   -1.3770   28.7560   26.6650 O   0  0  0  0  0  0
   -1.0180   27.0960   25.2850 N   0  0  0  0  0  0
   -1.3570   25.8600   24.7690 C   0  0  0  0  0  0
   -0.6440   25.4400   23.8720 O   0  0  0  0  0  0
   -2.4630   25.1710   25.2140 C   0  0  0  0  0  0
   -2.7030   23.9100   24.5910 C   0  0  0  0  0  0
   -2.9770   22.7280   25.2270 C   0  0  0  0  0  0
   -3.1210   21.2030   24.4470 P   0  0  0  0  0  0
   -4.7110   20.7800   24.6450 O   0  5  0  0  0  0
   -2.8980   21.2980   22.8410 O   0  5  0  0  0  0
   -2.1970   20.1520   25.0290 O   0  0  0  0  0  0
   -5.5731   23.3877   28.5079 H   0  0  0  0  0  0
   -5.2010   21.0609   27.7843 H   0  0  0  0  0  0
   -3.5083   19.7004   28.9693 H   0  0  0  0  0  0
   -2.2462   20.6025   30.8841 H   0  0  0  0  0  0
   -2.6508   22.9570   31.6485 H   0  0  0  0  0  0
   -4.0877   27.1256   31.9191 H   0  0  0  0  0  0
   -2.4711   27.2962   31.1550 H   0  0  0  0  0  0
   -4.4823   28.3699   30.3283 H   0  0  0  0  0  0
   -6.1226   26.8865   29.8164 H   0  0  0  0  0  0
   -5.2515   26.4194   27.1444 H   0  0  0  0  0  0
   -5.8545   28.0266   27.6735 H   0  0  0  0  0  0
   -3.5241   28.9246   27.5541 H   0  0  0  0  0  0
   -4.1130   25.3010   26.5910 H   0  0  0  0  0  0
   -0.1374   27.6141   24.8775 H   0  0  0  0  0  0
   -2.6516   23.9446   23.4927 H   0  0  0  0  0  0
   -3.1225   22.7109   26.3172 H   0  0  0  0  0  0
  1  2  2  0  0  0
  1  6  1  0  0  0
  1 34  1  0  0  0
  2  3  1  0  0  0
  2 35  1  0  0  0
  3  4  2  0  0  0
  3 36  1  0  0  0
  4  5  1  0  0  0
  4 37  1  0  0  0
  5  6  2  0  0  0
  5 38  1  0  0  0
  6  7  1  0  0  0
  7  8  1  0  0  0
  7 12  1  0  0  0
  7 13  1  0  0  0
  8  9  1  0  0  0
  8 10  1  0  0  0
  8 11  2  0  0  0
 12 17  1  0  0  0
 13 14  1  0  0  0
 14 15  1  0  0  0
 14 39  1  0  0  0
 14 40  1  0  0  0
 15 16  1  0  0  0
 15 17  1  0  0  0
 15 41  1  0  0  0
 16 19  1  0  0  0
 17 18  1  0  0  0
 17 42  1  0  0  0
 18 19  1  0  0  0
 18 43  1  0  0  0
 18 44  1  0  0  0
 19 20  1  0  0  0
 19 45  1  0  0  0
 20 21  1  0  0  0
 20 22  1  0  0  0
 21 27  2  0  0  0
 21 46  1  0  0  0
 22 23  2  0  0  0
 22 24  1  0  0  0
 24 25  1  0  0  0
 24 47  1  0  0  0
 25 26  2  0  0  0
 25 27  1  0  0  0
 27 28  1  0  0  0
 28 29  2  0  0  0
 28 48  1  0  0  0
 29 30  1  0  0  0
 29 49  1  0  0  0
 30 31  1  0  0  0
 30 32  1  0  0  0
 30 33  2  0  0  0
M  CHG  4   9  -1  10  -1  31  -1  32  -1
M  END
> <s_m_source_file>
../4yik_ligand.sdf

> <i_m_source_file_index>
1

> <s_epik_input>
W2NIXTFbY0hdW2NIXVtjSF1bY0hdYzFbQ0BAXShQKD1PKShbT0hdKVtPSF0pKE9bQ0gyXTIpT1tDQEBIXShbQ0BASF0yMylbQ0gyXVtDQEBIXShPMyluNFtjSF1jKGMoPU8pW25IXWM0PU8pL1tDSF09W0NIXS9QKD1PKShbT0hdKVtPSF0=

> <s_epik_cmdline>
J2VwaWtfYXBwJywgJy1pbWFlJywgJ2xpZ2FuZF9wcm8ubWFlJywgJy1vbWFlJywgJ2xpZ2FuZF9wcmVwLm1hZScsICctbXMnLCAnMScsICctcGgnLCAnNycsICctcGh0JywgJzAuNScsICctbnQn

> <r_lp_tautomer_probability>
1

> <r_epik_Ionization_Penalty>
  0.4786

> <r_epik_Ionization_Penalty_Charging>
  0.4786

> <r_epik_Ionization_Penalty_Neutral>
  0.0000

> <r_epik_State_Penalty>
 -0.0000

> <r_epik_Charging_Adjusted_Penalty>
0.478647781029832

> <i_epik_Tot_Q>
-4

> <i_epik_Tot_abs_Q>
4

> <s_epik_Chemistry_Notes>
This compound contains an acetal/aminal-like group ( X-CH(R)-Y where X, Y are N, S, or O) that may be acid/base labile, releasing an aldehyde.

$$$$
