4yjn_ligand
                    3D
 Schrodinger Suite 2020-3.
 53 56  0  0  1  0            999 V2000
   -2.9130  -24.0340  -30.8140 O   0  0  0  0  0  0
   -1.9290  -23.2830  -30.9220 C   0  0  0  0  0  0
   -0.7300  -23.7540  -31.2340 N   0  0  0  0  0  0
   -2.0770  -21.8630  -30.6440 C   0  0  0  0  0  0
   -3.2350  -21.2630  -30.1590 C   0  0  0  0  0  0
   -4.3910  -21.8690  -29.8550 N   0  0  0  0  0  0
   -2.9800  -19.9440  -30.0560 N   0  0  0  0  0  0
   -3.8460  -18.8120  -29.5640 C   0  0  0  0  0  0
   -2.9820  -17.6440  -29.1040 C   0  0  0  0  0  0
   -4.7180  -18.3350  -30.7140 C   0  0  0  0  0  0
   -4.7140  -19.3020  -28.4080 C   0  0  0  0  0  0
   -1.1500  -20.8180  -30.8050 C   0  0  0  0  0  0
   -1.6780  -19.6400  -30.4800 N   0  0  0  0  0  0
    0.2780  -20.8840  -31.1480 C   0  0  0  0  0  0
    1.2110  -20.2790  -30.3160 C   0  0  0  0  0  0
    2.5330  -20.2850  -30.6250 C   0  0  0  0  0  0
    2.9970  -20.9110  -31.7990 C   0  0  0  0  0  0
    4.3380  -20.9020  -32.0660 N   0  0  0  0  0  0
    4.7170  -21.5300  -33.1430 C   0  0  0  0  0  0
    3.8840  -22.1570  -34.0620 C   0  0  0  0  0  0
    2.5560  -22.1550  -33.8090 C   0  0  0  0  0  0
    2.0650  -21.5360  -32.6500 C   0  0  0  0  0  0
    0.6960  -21.5070  -32.2940 C   0  0  0  0  0  0
    6.0260  -21.7330  -33.3750 O   0  0  0  0  0  0
    6.9240  -21.5720  -32.2340 C   0  0  0  0  0  0
    8.3820  -21.8950  -32.5650 C   0  0  0  0  0  0
    8.7720  -20.5710  -31.9000 C   0  0  0  0  0  0
    7.2960  -20.1140  -31.9640 C   0  0  0  0  0  0
   -0.5983  -24.8250  -31.4475 H   0  0  0  0  0  0
    0.1334  -23.0739  -31.2794 H   0  0  0  0  0  0
   -4.4902  -22.9576  -29.9776 H   0  0  0  0  0  0
   -5.2407  -21.2778  -29.4828 H   0  0  0  0  0  0
   -2.3595  -17.2962  -29.9416 H   0  0  0  0  0  0
   -2.3346  -17.9704  -28.2768 H   0  0  0  0  0  0
   -3.6283  -16.8224  -28.7616 H   0  0  0  0  0  0
   -4.0789  -17.9855  -31.5383 H   0  0  0  0  0  0
   -5.3581  -17.5089  -30.3706 H   0  0  0  0  0  0
   -5.3481  -19.1654  -31.0653 H   0  0  0  0  0  0
   -4.0694  -19.6434  -27.5846 H   0  0  0  0  0  0
   -5.3440  -20.1361  -28.7505 H   0  0  0  0  0  0
   -5.3540  -18.4796  -28.0558 H   0  0  0  0  0  0
    0.8765  -19.7915  -29.4002 H   0  0  0  0  0  0
    3.2442  -19.7996  -29.9567 H   0  0  0  0  0  0
    4.2873  -22.6337  -34.9554 H   0  0  0  0  0  0
    1.8674  -22.6340  -34.5051 H   0  0  0  0  0  0
   -0.0372  -21.9878  -32.9416 H   0  0  0  0  0  0
    6.3564  -22.1652  -31.5019 H   0  0  0  0  0  0
    8.6684  -22.8384  -32.0772 H   0  0  0  0  0  0
    8.4971  -21.9958  -33.6543 H   0  0  0  0  0  0
    9.2122  -20.7725  -30.9123 H   0  0  0  0  0  0
    9.5069  -20.0472  -32.5290 H   0  0  0  0  0  0
    6.9669  -19.4894  -32.8075 H   0  0  0  0  0  0
    6.8021  -19.7743  -31.0417 H   0  0  0  0  0  0
  1  2  2  0  0  0
  2  3  1  0  0  0
  2  4  1  0  0  0
  3 29  1  0  0  0
  3 30  1  0  0  0
  4  5  2  0  0  0
  4 12  1  0  0  0
  5  6  1  0  0  0
  5  7  1  0  0  0
  6 31  1  0  0  0
  6 32  1  0  0  0
  7  8  1  0  0  0
  7 13  1  0  0  0
  8  9  1  0  0  0
  8 10  1  0  0  0
  8 11  1  0  0  0
  9 33  1  0  0  0
  9 34  1  0  0  0
  9 35  1  0  0  0
 10 36  1  0  0  0
 10 37  1  0  0  0
 10 38  1  0  0  0
 11 39  1  0  0  0
 11 40  1  0  0  0
 11 41  1  0  0  0
 12 13  2  0  0  0
 12 14  1  0  0  0
 14 15  2  0  0  0
 14 23  1  0  0  0
 15 16  1  0  0  0
 15 42  1  0  0  0
 16 17  2  0  0  0
 16 43  1  0  0  0
 17 18  1  0  0  0
 17 22  1  0  0  0
 18 19  2  0  0  0
 19 20  1  0  0  0
 19 24  1  0  0  0
 20 21  2  0  0  0
 20 44  1  0  0  0
 21 22  1  0  0  0
 21 45  1  0  0  0
 22 23  2  0  0  0
 23 46  1  0  0  0
 24 25  1  0  0  0
 25 26  1  0  0  0
 25 28  1  0  0  0
 25 47  1  0  0  0
 26 27  1  0  0  0
 26 48  1  0  0  0
 26 49  1  0  0  0
 27 28  1  0  0  0
 27 50  1  0  0  0
 27 51  1  0  0  0
 28 52  1  0  0  0
 28 53  1  0  0  0
M  END
> <s_m_source_file>
../4yjn_ligand.sdf

> <i_m_source_file_index>
1

> <s_epik_input>
Tz1DKFtOSDJdKWMxYyhbTkgyXSluKEMoW0NIM10pKFtDSDNdKVtDSDNdKW5jMS1jKFtjSF1bY0hdMilbY0hdYyhjMjMpW2NIXVtjSF1jKG4zKU9bQ0hdNFtDSDJdW0NIMl1bQ0gyXTQ=

> <s_epik_cmdline>
J2VwaWtfYXBwJywgJy1pbWFlJywgJ2xpZ2FuZF9wcm8ubWFlJywgJy1vbWFlJywgJ2xpZ2FuZF9wcmVwLm1hZScsICctbXMnLCAnMScsICctcGgnLCAnNycsICctcGh0JywgJzAuNScsICctbnQn

> <r_lp_tautomer_probability>
1

> <r_epik_Ionization_Penalty>
  0.0002

> <r_epik_Ionization_Penalty_Charging>
  0.0000

> <r_epik_Ionization_Penalty_Neutral>
  0.0002

> <r_epik_State_Penalty>
 -0.0000

> <r_epik_Charging_Adjusted_Penalty>
0

> <i_epik_Tot_Q>
0

> <i_epik_Tot_abs_Q>
0

$$$$
