4yk5_ligand
                    3D
 Schrodinger Suite 2020-3.
 69 73  0  0  1  0            999 V2000
   18.4020   18.7250   32.5390 O   0  0  0  0  0  0
   10.1030   17.7040   28.2370 C   0  0  0  0  0  0
   17.0480   17.2110   33.4570 O   0  5  0  0  0  0
   10.7920   17.1290   27.1530 C   0  0  0  0  0  0
   14.1770   17.1160   30.3720 C   0  0  0  0  0  0
   12.9270   17.6310   30.7180 N   0  0  0  0  0  0
   12.1390   16.7530   27.3500 C   0  0  0  0  0  0
   12.7860   16.9610   28.5880 C   0  0  0  0  0  0
   15.1830   16.0640   28.2140 C   0  0  0  0  0  0
   14.1070   16.6910   29.0480 C   0  0  0  0  0  0
   10.0960   12.7210   34.3900 Cl  0  0  0  0  0  0
   10.7580   14.1580   33.7310 C   0  0  0  0  0  0
    9.9230   15.0370   33.0440 C   0  0  0  0  0  0
   10.4590   16.2110   32.5040 C   0  0  0  0  0  0
   12.1170   14.4340   33.8970 C   0  0  0  0  0  0
   12.6510   15.6110   33.3590 C   0  0  0  0  0  0
   11.8260   16.5130   32.6580 C   0  0  0  0  0  0
   12.4230   17.7800   32.0880 C   0  0  0  0  0  0
   12.0690   17.5440   29.6320 C   0  0  0  0  0  0
   15.3560   17.0540   31.3160 C   0  0  0  0  0  0
   16.2810   18.3000   31.4070 C   0  0  0  0  0  0
   17.3450   18.1110   32.4970 C   0  0  0  0  0  0
   15.5440   19.6370   31.6130 C   0  0  0  0  0  0
   17.0370   18.4290   30.0570 C   0  0  0  0  0  0
   10.7210   17.9240   29.4770 C   0  0  0  0  0  0
   10.1250   16.8820   25.8620 C   0  0  0  0  0  0
    9.0470   17.6630   25.3880 C   0  0  0  0  0  0
    8.4330   17.3750   24.1540 C   0  0  0  0  0  0
    8.8820   16.2950   23.3690 C   0  0  0  0  0  0
    9.9430   15.5240   23.8530 C   0  0  0  0  0  0
   10.4010   14.4850   23.1390 F   0  0  0  0  0  0
   10.5560   15.8040   25.0720 C   0  0  0  0  0  0
    8.2670   15.9520   22.0770 C   0  0  0  0  0  0
    8.7020   16.4690   20.8250 C   0  0  0  0  0  0
    9.8370   17.4520   20.6790 C   0  0  0  0  0  0
    8.0410   16.0550   19.6500 C   0  0  0  0  0  0
    6.9770   15.1470   19.6890 C   0  0  0  0  0  0
    6.5540   14.6320   20.9110 C   0  0  0  0  0  0
    7.1950   15.0300   22.0870 C   0  0  0  0  0  0
    9.0581   17.9868   28.1093 H   0  0  0  0  0  0
   12.6904   16.2930   26.5300 H   0  0  0  0  0  0
   16.1018   15.9697   28.8114 H   0  0  0  0  0  0
   15.3803   16.6953   27.3351 H   0  0  0  0  0  0
   14.8565   15.0669   27.8835 H   0  0  0  0  0  0
    8.8627   14.8121   32.9285 H   0  0  0  0  0  0
    9.8124   16.8986   31.9588 H   0  0  0  0  0  0
   12.7565   13.7388   34.4409 H   0  0  0  0  0  0
   13.7113   15.8310   33.4831 H   0  0  0  0  0  0
   13.2475   18.0804   32.7513 H   0  0  0  0  0  0
   11.6373   18.5496   32.1080 H   0  0  0  0  0  0
   14.9958   16.8887   32.3421 H   0  0  0  0  0  0
   16.0180   16.2262   31.0220 H   0  0  0  0  0  0
   14.9861   19.6059   32.5605 H   0  0  0  0  0  0
   14.8440   19.8019   30.7806 H   0  0  0  0  0  0
   16.2756   20.4578   31.6450 H   0  0  0  0  0  0
   17.5863   17.4978   29.8539 H   0  0  0  0  0  0
   17.7459   19.2682   30.1125 H   0  0  0  0  0  0
   16.3144   18.6123   29.2482 H   0  0  0  0  0  0
   10.1713   18.3783   30.3013 H   0  0  0  0  0  0
    8.6858   18.4998   25.9858 H   0  0  0  0  0  0
    7.6051   17.9916   23.8040 H   0  0  0  0  0  0
   11.3798   15.1791   25.4167 H   0  0  0  0  0  0
   10.2534   17.6812   21.6710 H   0  0  0  0  0  0
    9.4636   18.3770   20.2155 H   0  0  0  0  0  0
   10.6215   17.0145   20.0441 H   0  0  0  0  0  0
    8.3667   16.4518   18.6885 H   0  0  0  0  0  0
    6.4816   14.8443   18.7665 H   0  0  0  0  0  0
    5.7276   13.9224   20.9503 H   0  0  0  0  0  0
    6.8593   14.6182   23.0388 H   0  0  0  0  0  0
  1 22  2  0  0  0
  2  4  2  0  0  0
  2 25  1  0  0  0
  2 40  1  0  0  0
  3 22  1  0  0  0
  4  7  1  0  0  0
  4 26  1  0  0  0
  5  6  1  0  0  0
  5 10  2  0  0  0
  5 20  1  0  0  0
  6 18  1  0  0  0
  6 19  1  0  0  0
  7  8  2  0  0  0
  7 41  1  0  0  0
  8 10  1  0  0  0
  8 19  1  0  0  0
  9 10  1  0  0  0
  9 42  1  0  0  0
  9 43  1  0  0  0
  9 44  1  0  0  0
 11 12  1  0  0  0
 12 13  2  0  0  0
 12 15  1  0  0  0
 13 14  1  0  0  0
 13 45  1  0  0  0
 14 17  2  0  0  0
 14 46  1  0  0  0
 15 16  2  0  0  0
 15 47  1  0  0  0
 16 17  1  0  0  0
 16 48  1  0  0  0
 17 18  1  0  0  0
 18 49  1  0  0  0
 18 50  1  0  0  0
 19 25  2  0  0  0
 20 21  1  0  0  0
 20 51  1  0  0  0
 20 52  1  0  0  0
 21 22  1  0  0  0
 21 23  1  0  0  0
 21 24  1  0  0  0
 23 53  1  0  0  0
 23 54  1  0  0  0
 23 55  1  0  0  0
 24 56  1  0  0  0
 24 57  1  0  0  0
 24 58  1  0  0  0
 25 59  1  0  0  0
 26 27  2  0  0  0
 26 32  1  0  0  0
 27 28  1  0  0  0
 27 60  1  0  0  0
 28 29  2  0  0  0
 28 61  1  0  0  0
 29 30  1  0  0  0
 29 33  1  0  0  0
 30 31  1  0  0  0
 30 32  2  0  0  0
 32 62  1  0  0  0
 33 34  2  0  0  0
 33 39  1  0  0  0
 34 35  1  0  0  0
 34 36  1  0  0  0
 35 63  1  0  0  0
 35 64  1  0  0  0
 35 65  1  0  0  0
 36 37  2  0  0  0
 36 66  1  0  0  0
 37 38  1  0  0  0
 37 67  1  0  0  0
 38 39  2  0  0  0
 38 68  1  0  0  0
 39 69  1  0  0  0
M  CHG  1   3  -1
M  END
> <s_m_source_file>
../4yk5_ligand.sdf

> <i_m_source_file_index>
1

> <s_epik_input>
Q2xjMVtjSF1bY0hdYyhbY0hdW2NIXTEpW0NIMl1uKGMoYzJbQ0gzXSlbQ0gyXUMoW0NIM10pKFtDSDNdKUMoPU8pW09IXSljKGMyMylbY0hdW2NIXWMoW2NIXTMpLWM0W2NIXVtjSF1jKGMoRilbY0hdNCktYzVjKFtDSDNdKVtjSF1bY0hdW2NIXVtjSF01

> <s_epik_cmdline>
J2VwaWtfYXBwJywgJy1pbWFlJywgJ2xpZ2FuZF9wcm8ubWFlJywgJy1vbWFlJywgJ2xpZ2FuZF9wcmVwLm1hZScsICctbXMnLCAnMScsICctcGgnLCAnNycsICctcGh0JywgJzAuNScsICctbnQn

> <r_lp_tautomer_probability>
1

> <r_epik_Ionization_Penalty>
  0.0023

> <r_epik_Ionization_Penalty_Charging>
  0.0023

> <r_epik_Ionization_Penalty_Neutral>
  0.0000

> <r_epik_State_Penalty>
 -0.0000

> <r_epik_Charging_Adjusted_Penalty>
0.00229622309009322

> <i_epik_Tot_Q>
-1

> <i_epik_Tot_abs_Q>
1

$$$$
