4ykk_ligand
                    3D
 Schrodinger Suite 2020-3.
 14 13  0  0  1  0            999 V2000
    9.7080   61.3640   43.7050 N   0  3  0  0  0  0
    9.0820   60.2020   44.3220 C   0  0  1  0  0  0
    8.1950   60.6240   45.4810 C   0  0  0  0  0  0
    7.1070   60.0620   45.7340 O   0  5  0  0  0  0
    8.5790   61.5580   46.1860 O   0  0  0  0  0  0
    8.2680   59.4260   43.3000 C   0  0  0  0  0  0
    7.0400   60.0660   43.0400 O   0  0  0  0  0  0
   10.2913   61.9107   44.4606 H   0  0  0  0  0  0
    8.9303   62.0243   43.2938 H   0  0  0  0  0  0
   10.3750   61.0342   42.8949 H   0  0  0  0  0  0
    9.9101   59.5795   44.6918 H   0  0  0  0  0  0
    8.8336   59.3535   42.3594 H   0  0  0  0  0  0
    8.0643   58.4156   43.6842 H   0  0  0  0  0  0
    6.3333   59.6282   42.3197 H   0  0  0  0  0  0
  1  2  1  0  0  0
  1  8  1  0  0  0
  1  9  1  0  0  0
  1 10  1  0  0  0
  2  3  1  0  0  0
  2  6  1  0  0  0
  2 11  1  0  0  0
  3  4  1  0  0  0
  3  5  2  0  0  0
  6  7  1  0  0  0
  6 12  1  0  0  0
  6 13  1  0  0  0
  7 14  1  0  0  0
M  CHG  2   1   1   4  -1
M  END
> <s_m_source_file>
../4ykk_ligand.sdf

> <i_m_source_file_index>
1

> <s_epik_input>
W09IXVtDSDJdW0NAQEhdKFtOSDMrXSlDKD1PKVtPSF0=

> <s_epik_cmdline>
J2VwaWtfYXBwJywgJy1pbWFlJywgJ2xpZ2FuZF9wcm8ubWFlJywgJy1vbWFlJywgJ2xpZ2FuZF9wcmVwLm1hZScsICctbXMnLCAnMScsICctcGgnLCAnNycsICctcGh0JywgJzAuNScsICctbnQn

> <r_lp_tautomer_probability>
1

> <r_epik_Ionization_Penalty>
  0.0007

> <r_epik_Ionization_Penalty_Charging>
  0.0007

> <r_epik_Ionization_Penalty_Neutral>
  0.0000

> <r_epik_State_Penalty>
 -0.0000

> <r_epik_Charging_Adjusted_Penalty>
0.000747601593621184

> <i_epik_Tot_Q>
0

> <i_epik_Tot_abs_Q>
2

$$$$
