4ykn_ligand
                    3D
 Schrodinger Suite 2020-3.
 54 57  0  0  1  0            999 V2000
    0.7280    2.5560  -41.4180 C   0  0  0  0  0  0
   -1.1500    6.2070  -39.7110 C   0  0  0  0  0  0
   -0.3140    6.0820  -37.4650 C   0  0  0  0  0  0
   -2.2280    4.3430  -35.5750 C   0  0  0  0  0  0
   -3.8930    0.7910  -36.5660 C   0  0  0  0  0  0
   -3.5580   -1.8830  -38.3040 C   0  0  0  0  0  0
   -2.7840   -2.3170  -39.3850 O   0  0  0  0  0  0
   -1.8230   -1.3980  -39.8270 C   0  0  0  0  0  0
   -1.8890   -0.0840  -39.3950 C   0  0  0  0  0  0
   -0.9310    0.8060  -39.8470 C   0  0  0  0  0  0
    0.0460    0.3500  -40.7200 C   0  0  0  0  0  0
    0.0500   -0.9810  -41.1080 C   0  0  0  0  0  0
   -0.8780   -1.8080  -40.6580 N   0  0  0  0  0  0
    1.0260    1.2200  -41.1850 C   0  0  0  0  0  0
    1.7170    3.4190  -41.8780 C   0  0  0  0  0  0
    1.4140    4.8930  -42.1390 C   0  0  0  0  0  0
    0.1280    5.2740  -41.5880 N   0  0  0  0  0  0
   -0.0180    5.5500  -40.1680 C   0  0  0  0  0  0
   -1.2990    6.4720  -38.3580 C   0  0  0  0  0  0
    0.8200    5.4240  -37.9180 C   0  0  0  0  0  0
    0.9670    5.1590  -39.2710 C   0  0  0  0  0  0
   -0.5250    6.4350  -35.6950 S   0  0  0  0  0  0
   -0.5240    7.8780  -35.4390 O   0  0  0  0  0  0
    0.6230    5.9730  -34.9130 O   0  0  0  0  0  0
   -1.9580    5.6960  -35.1350 N   0  5  0  0  0  0
   -1.3410    3.4860  -36.0450 N   0  0  0  0  0  0
   -1.8230    2.2630  -36.4020 N   0  0  0  0  0  0
   -3.1190    2.0650  -36.2400 C   0  0  0  0  0  0
   -3.7520    3.5340  -35.5900 S   0  0  0  0  0  0
    2.9970    2.9480  -42.1020 C   0  0  0  0  0  0
    3.2920    1.6190  -41.8680 C   0  0  0  0  0  0
    2.3090    0.7530  -41.4100 C   0  0  0  0  0  0
    4.7100    1.1160  -42.1220 C   0  0  0  0  0  0
    5.6930    1.7610  -41.6640 O   0  5  0  0  0  0
    4.8950    0.0550  -42.7760 O   0  0  0  0  0  0
   -0.2809    2.9284  -41.2404 H   0  0  0  0  0  0
   -1.9229    6.5152  -40.4151 H   0  0  0  0  0  0
   -3.2020    0.0345  -36.9663 H   0  0  0  0  0  0
   -4.6669    1.0138  -37.3153 H   0  0  0  0  0  0
   -4.3680    0.4064  -35.6514 H   0  0  0  0  0  0
   -4.2791   -2.6675  -38.0310 H   0  0  0  0  0  0
   -4.1003   -0.9682  -38.5852 H   0  0  0  0  0  0
   -2.9033   -1.6719  -37.4456 H   0  0  0  0  0  0
   -2.6766    0.2412  -38.7153 H   0  0  0  0  0  0
   -0.9437    1.8467  -39.5230 H   0  0  0  0  0  0
    0.8208   -1.3468  -41.7863 H   0  0  0  0  0  0
    2.1919    5.5154  -41.6726 H   0  0  0  0  0  0
    1.3978    5.0776  -43.2233 H   0  0  0  0  0  0
   -0.7496    5.3567  -42.2460 H   0  0  0  0  0  0
   -2.1898    6.9864  -37.9975 H   0  0  0  0  0  0
    1.5925    5.1165  -37.2131 H   0  0  0  0  0  0
    1.8571    4.6430  -39.6309 H   0  0  0  0  0  0
    3.7722    3.6241  -42.4626 H   0  0  0  0  0  0
    2.5475   -0.2948  -41.2276 H   0  0  0  0  0  0
  1 14  2  0  0  0
  1 15  1  0  0  0
  1 36  1  0  0  0
  2 18  2  0  0  0
  2 19  1  0  0  0
  2 37  1  0  0  0
  3 19  2  0  0  0
  3 20  1  0  0  0
  3 22  1  0  0  0
  4 25  1  0  0  0
  4 26  2  0  0  0
  4 29  1  0  0  0
  5 28  1  0  0  0
  5 38  1  0  0  0
  5 39  1  0  0  0
  5 40  1  0  0  0
  6  7  1  0  0  0
  6 41  1  0  0  0
  6 42  1  0  0  0
  6 43  1  0  0  0
  7  8  1  0  0  0
  8  9  2  0  0  0
  8 13  1  0  0  0
  9 10  1  0  0  0
  9 44  1  0  0  0
 10 11  2  0  0  0
 10 45  1  0  0  0
 11 12  1  0  0  0
 11 14  1  0  0  0
 12 13  2  0  0  0
 12 46  1  0  0  0
 14 32  1  0  0  0
 15 16  1  0  0  0
 15 30  2  0  0  0
 16 17  1  0  0  0
 16 47  1  0  0  0
 16 48  1  0  0  0
 17 18  1  0  0  0
 17 49  1  0  0  0
 18 21  1  0  0  0
 19 50  1  0  0  0
 20 21  2  0  0  0
 20 51  1  0  0  0
 21 52  1  0  0  0
 22 23  2  0  0  0
 22 24  2  0  0  0
 22 25  1  0  0  0
 26 27  1  0  0  0
 27 28  2  0  0  0
 28 29  1  0  0  0
 30 31  1  0  0  0
 30 53  1  0  0  0
 31 32  2  0  0  0
 31 33  1  0  0  0
 32 54  1  0  0  0
 33 34  1  0  0  0
 33 35  2  0  0  0
M  CHG  2  25  -1  34  -1
M  END
> <s_m_source_file>
../4ykn_ligand.sdf

> <i_m_source_file_index>
1

> <s_epik_input>
W0NIM11PYzFbY0hdW2NIXWMoW2NIXW4xKS1jMltjSF1jKFtjSF1jKFtjSF0yKUMoPU8pW09IXSlbQ0gyXVtOSF1jKFtjSF1bY0hdMylbY0hdW2NIXWMzUyg9TykoPU8pW05IXWM0bm5jKHM0KVtDSDNd

> <s_epik_cmdline>
J2VwaWtfYXBwJywgJy1pbWFlJywgJ2xpZ2FuZF9wcm8ubWFlJywgJy1vbWFlJywgJ2xpZ2FuZF9wcmVwLm1hZScsICctbXMnLCAnMScsICctcGgnLCAnNycsICctcGh0JywgJzAuNScsICctbnQn

> <r_lp_tautomer_probability>
1

> <r_epik_Ionization_Penalty>
  0.0125

> <r_epik_Ionization_Penalty_Charging>
  0.0122

> <r_epik_Ionization_Penalty_Neutral>
  0.0003

> <r_epik_State_Penalty>
  0.0087

> <r_epik_Charging_Adjusted_Penalty>
0.0208810615457911

> <i_epik_Tot_Q>
-2

> <i_epik_Tot_abs_Q>
2

$$$$
