4yl0_ligand
                    3D
 Schrodinger Suite 2020-3.
 38 42  0  0  1  0            999 V2000
   11.4190   12.7890   34.5600 C   0  0  0  0  0  0
    9.7280   14.1890   33.5390 C   0  0  0  0  0  0
   10.3080   16.0950   32.1680 C   0  0  0  0  0  0
   10.0710   13.0900   34.3310 C   0  0  0  0  0  0
   17.8100   18.4400   33.6860 C   0  0  0  0  0  0
   18.4820   18.8610   32.5410 C   0  0  0  0  0  0
   13.7840   13.2080   34.2780 C   0  0  0  0  0  0
   16.9380   17.9270   25.8570 Cl  0  0  0  0  0  0
   16.1940   17.4600   27.3370 C   0  0  0  0  0  0
   15.0100   16.7250   27.3140 C   0  0  0  0  0  0
   16.7840   17.8240   28.5600 C   0  0  0  0  0  0
   16.2150   17.4640   29.8120 C   0  0  0  0  0  0
   16.7780   17.8080   31.0950 C   0  0  0  0  0  0
   17.9760   18.5530   31.2700 C   0  0  0  0  0  0
   15.0030   16.7090   29.7490 C   0  0  0  0  0  0
   14.4090   16.3470   28.5130 C   0  0  0  0  0  0
   14.3890   16.3250   30.9640 C   0  0  0  0  0  0
   13.2450   15.6130   31.2490 N   0  0  0  0  0  0
   13.1130   15.5220   32.6050 C   0  0  3  0  0  0
   12.0880   14.6910   33.2030 C   0  0  0  0  0  0
   12.4280   13.5830   33.9990 C   0  0  0  0  0  0
   14.8840   12.9090   34.5010 N   0  0  0  0  0  0
   10.7320   14.9880   32.9770 C   0  0  0  0  0  0
    9.9550   16.9840   31.5120 N   0  0  0  0  0  0
   14.0990   16.1360   33.2220 N   0  0  0  0  0  0
   14.9090   16.6400   32.2190 C   0  0  0  0  0  0
   16.1140   17.3910   32.2950 C   0  0  0  0  0  0
   16.6310   17.7070   33.5720 C   0  0  0  0  0  0
   11.6852   11.9318   35.1784 H   0  0  0  0  0  0
    8.6792   14.4245   33.3585 H   0  0  0  0  0  0
    9.2905   12.4683   34.7697 H   0  0  0  0  0  0
   18.2067   18.6841   34.6714 H   0  0  0  0  0  0
   19.4055   19.4325   32.6333 H   0  0  0  0  0  0
   14.5563   16.4472   26.3626 H   0  0  0  0  0  0
   17.7084   18.4014   28.5479 H   0  0  0  0  0  0
   18.5182   18.8955   30.3887 H   0  0  0  0  0  0
   13.4824   15.7731   28.5010 H   0  0  0  0  0  0
   16.1065   17.3767   34.4686 H   0  0  0  0  0  0
  1  4  2  0  0  0
  1 21  1  0  0  0
  1 29  1  0  0  0
  2  4  1  0  0  0
  2 23  2  0  0  0
  2 30  1  0  0  0
  3 23  1  0  0  0
  3 24  3  0  0  0
  4 31  1  0  0  0
  5  6  2  0  0  0
  5 28  1  0  0  0
  5 32  1  0  0  0
  6 14  1  0  0  0
  6 33  1  0  0  0
  7 21  1  0  0  0
  7 22  3  0  0  0
  8  9  1  0  0  0
  9 10  2  0  0  0
  9 11  1  0  0  0
 10 16  1  0  0  0
 10 34  1  0  0  0
 11 12  2  0  0  0
 11 35  1  0  0  0
 12 13  1  0  0  0
 12 15  1  0  0  0
 13 14  2  0  0  0
 13 27  1  0  0  0
 14 36  1  0  0  0
 15 16  2  0  0  0
 15 17  1  0  0  0
 16 37  1  0  0  0
 17 18  2  0  0  0
 17 26  1  0  0  0
 18 19  1  0  0  0
 19 20  1  0  0  0
 19 25  1  0  0  0
 20 21  2  0  0  0
 20 23  1  0  0  0
 25 26  2  0  0  0
 26 27  1  0  0  0
 27 28  2  0  0  0
 28 38  1  0  0  0
M  END
> <s_m_source_file>
../4yl0_ligand.sdf

> <i_m_source_file_index>
1

> <s_epik_input>
TiNDYzFbY0hdW2NIXVtjSF1jKEMjTiljMVtDSF0oTj0yKU49YyhjM1tjSF1bY0hdYyhDbClbY0hdNCljMmMoYzVjMzQpW2NIXVtjSF1bY0hdW2NIXTU=

> <s_epik_cmdline>
J2VwaWtfYXBwJywgJy1pbWFlJywgJ2xpZ2FuZF9wcm8ubWFlJywgJy1vbWFlJywgJ2xpZ2FuZF9wcmVwLm1hZScsICctbXMnLCAnMScsICctcGgnLCAnNycsICctcGh0JywgJzAuNScsICctbnQn

> <r_epik_Ionization_Penalty>
  0.6836

> <r_epik_Ionization_Penalty_Charging>
  0.0000

> <r_epik_Ionization_Penalty_Neutral>
  0.6836

> <r_epik_State_Penalty>
  0.5513

> <r_epik_Charging_Adjusted_Penalty>
0.551285558083834

> <i_epik_Tot_Q>
0

> <i_epik_Tot_abs_Q>
0

> <s_epik_Chemistry_Notes>
This compound has an imine and may undergo hydrolysis.

$$$$
