4yl1_ligand
                    3D
 Schrodinger Suite 2020-3.
 60 63  0  0  1  0            999 V2000
   11.5330   15.5970   33.7160 O   0  0  0  0  0  0
   17.5130   16.6890   23.1990 C   0  0  0  0  0  0
   17.1610   17.2110   33.7310 O   0  5  0  0  0  0
   18.1470   17.8450   22.6900 C   0  0  0  0  0  0
   15.8130   16.8660   27.2570 C   0  0  0  0  0  0
   16.1680   17.3010   31.0050 N   0  0  0  0  0  0
   18.3880   18.8860   23.6110 C   0  0  0  0  0  0
   18.0210   18.7750   24.9630 C   0  0  0  0  0  0
   17.3930   17.6190   25.4580 C   0  0  0  0  0  0
   17.0080   17.5000   26.8780 C   0  0  0  0  0  0
   18.3600   19.0600   33.3380 O   0  0  0  0  0  0
   17.5960   18.2060   32.9210 C   0  0  0  0  0  0
   17.2940   17.9520   31.5290 C   0  0  0  0  0  0
   18.0910   18.3240   30.4570 C   0  0  0  0  0  0
   14.9890   16.8950   31.7070 C   0  0  0  0  0  0
   14.2460   17.8170   32.4600 C   0  0  0  0  0  0
   13.0890   17.4060   33.1430 C   0  0  0  0  0  0
   12.6520   16.0780   33.0790 C   0  0  0  0  0  0
   11.0900   14.2300   33.6520 C   0  0  0  0  0  0
   11.8080   13.3790   34.6980 C   0  0  0  0  0  0
    9.5950   14.2580   33.9610 C   0  0  0  0  0  0
   13.3980   15.1630   32.3180 C   0  0  0  0  0  0
   14.5570   15.5620   31.6400 C   0  0  0  0  0  0
   16.2800   17.2720   29.6060 C   0  0  0  0  0  0
   15.4360   16.7440   28.6030 C   0  0  0  0  0  0
   17.4760   17.9080   29.2580 C   0  0  0  0  0  0
   17.8370   18.0200   27.8950 C   0  0  0  0  0  0
   17.1490   16.5770   24.5490 C   0  0  0  0  0  0
   18.5410   17.9420   21.1950 C   0  0  0  0  0  0
   19.9370   18.5580   20.9370 C   0  0  0  0  0  0
   18.5650   16.5460   20.5280 C   0  0  0  0  0  0
   17.5210   18.8310   20.4500 C   0  0  0  0  0  0
   17.3008   15.8606   22.5231 H   0  0  0  0  0  0
   15.1611   16.4579   26.4846 H   0  0  0  0  0  0
   18.8712   19.7998   23.2652 H   0  0  0  0  0  0
   18.2276   19.6024   25.6418 H   0  0  0  0  0  0
   19.0411   18.8534   30.5295 H   0  0  0  0  0  0
   14.5680   18.8569   32.5153 H   0  0  0  0  0  0
   12.5247   18.1305   33.7301 H   0  0  0  0  0  0
   11.3261   13.8454   32.6488 H   0  0  0  0  0  0
   12.8853   13.3578   34.4768 H   0  0  0  0  0  0
   11.4085   12.3544   34.6741 H   0  0  0  0  0  0
   11.6471   13.8121   35.6963 H   0  0  0  0  0  0
    9.0765   14.8704   33.2086 H   0  0  0  0  0  0
    9.4350   14.6907   34.9596 H   0  0  0  0  0  0
    9.1965   13.2330   33.9374 H   0  0  0  0  0  0
   13.0697   14.1256   32.2540 H   0  0  0  0  0  0
   15.1245   14.8351   31.0590 H   0  0  0  0  0  0
   14.5034   16.2479   28.8718 H   0  0  0  0  0  0
   18.7698   18.5155   27.6259 H   0  0  0  0  0  0
   16.6676   15.6638   24.8990 H   0  0  0  0  0  0
   20.7031   17.9577   21.4496 H   0  0  0  0  0  0
   19.9601   19.5881   21.3221 H   0  0  0  0  0  0
   20.1401   18.5660   19.8559 H   0  0  0  0  0  0
   19.2885   15.9026   21.0501 H   0  0  0  0  0  0
   18.8599   16.6486   19.4732 H   0  0  0  0  0  0
   17.5637   16.0944   20.5865 H   0  0  0  0  0  0
   17.4945   19.8274   20.9152 H   0  0  0  0  0  0
   16.5230   18.3722   20.5088 H   0  0  0  0  0  0
   17.8192   18.9264   19.3955 H   0  0  0  0  0  0
  1 18  1  0  0  0
  1 19  1  0  0  0
  2  4  2  0  0  0
  2 28  1  0  0  0
  2 33  1  0  0  0
  3 12  1  0  0  0
  4  7  1  0  0  0
  4 29  1  0  0  0
  5 10  1  0  0  0
  5 25  2  0  0  0
  5 34  1  0  0  0
  6 13  1  0  0  0
  6 15  1  0  0  0
  6 24  1  0  0  0
  7  8  2  0  0  0
  7 35  1  0  0  0
  8  9  1  0  0  0
  8 36  1  0  0  0
  9 10  1  0  0  0
  9 28  2  0  0  0
 10 27  2  0  0  0
 11 12  2  0  0  0
 12 13  1  0  0  0
 13 14  2  0  0  0
 14 26  1  0  0  0
 14 37  1  0  0  0
 15 16  2  0  0  0
 15 23  1  0  0  0
 16 17  1  0  0  0
 16 38  1  0  0  0
 17 18  2  0  0  0
 17 39  1  0  0  0
 18 22  1  0  0  0
 19 20  1  0  0  0
 19 21  1  0  0  0
 19 40  1  0  0  0
 20 41  1  0  0  0
 20 42  1  0  0  0
 20 43  1  0  0  0
 21 44  1  0  0  0
 21 45  1  0  0  0
 21 46  1  0  0  0
 22 23  2  0  0  0
 22 47  1  0  0  0
 23 48  1  0  0  0
 24 25  1  0  0  0
 24 26  2  0  0  0
 25 49  1  0  0  0
 26 27  1  0  0  0
 27 50  1  0  0  0
 28 51  1  0  0  0
 29 30  1  0  0  0
 29 31  1  0  0  0
 29 32  1  0  0  0
 30 52  1  0  0  0
 30 53  1  0  0  0
 30 54  1  0  0  0
 31 55  1  0  0  0
 31 56  1  0  0  0
 31 57  1  0  0  0
 32 58  1  0  0  0
 32 59  1  0  0  0
 32 60  1  0  0  0
M  CHG  1   3  -1
M  END
> <s_m_source_file>
../4yl1_ligand.sdf

> <i_m_source_file_index>
1

> <s_epik_input>
W0NIM11bQ0hdKFtDSDNdKU9jKFtjSF1bY0hdMSlbY0hdW2NIXWMxLW4yYyhDKD1PKVtPSF0pW2NIXWMoYzIzKVtjSF1jKFtjSF1bY0hdMyktYyhbY0hdW2NIXTQpW2NIXVtjSF1jNEMoW0NIM10pKFtDSDNdKVtDSDNd

> <s_epik_cmdline>
J2VwaWtfYXBwJywgJy1pbWFlJywgJ2xpZ2FuZF9wcm8ubWFlJywgJy1vbWFlJywgJ2xpZ2FuZF9wcmVwLm1hZScsICctbXMnLCAnMScsICctcGgnLCAnNycsICctcGh0JywgJzAuNScsICctbnQn

> <r_lp_tautomer_probability>
1

> <r_epik_Ionization_Penalty>
  0.0016

> <r_epik_Ionization_Penalty_Charging>
  0.0016

> <r_epik_Ionization_Penalty_Neutral>
  0.0000

> <r_epik_State_Penalty>
 -0.0000

> <r_epik_Charging_Adjusted_Penalty>
0.00161831802040593

> <i_epik_Tot_Q>
-1

> <i_epik_Tot_abs_Q>
1

$$$$
