4yll_ligand
                    3D
 Schrodinger Suite 2020-3.
 28 31  0  0  1  0            999 V2000
   20.9680   52.7000   33.9800 O   0  5  0  0  0  0
   20.2680   52.6000   35.0900 C   0  0  0  0  0  0
   20.3110   52.9900   36.3150 O   0  0  0  0  0  0
   19.4950   51.5840   35.0810 C   0  0  0  0  0  0
   19.7710   50.8460   33.8540 N   0  0  0  0  0  0
   19.1720   49.6020   33.7960 C   0  0  0  0  0  0
   19.4720   48.7060   32.7550 C   0  0  0  0  0  0
   18.8730   47.4730   32.6890 C   0  0  0  0  0  0
   17.9310   47.1510   33.6590 C   0  0  0  0  0  0
   17.6500   48.0140   34.7140 C   0  0  0  0  0  0
   18.2530   49.2650   34.7910 C   0  0  0  0  0  0
   17.8930   50.1220   35.8500 C   0  0  0  0  0  0
   18.5000   51.3080   36.1470 C   0  0  0  0  0  0
   17.8450   51.7950   37.3210 C   0  0  0  0  0  0
   17.9490   52.9510   38.1440 C   0  0  0  0  0  0
   17.0480   53.0780   39.2260 C   0  0  0  0  0  0
   16.1090   52.0960   39.5750 C   0  0  0  0  0  0
   16.0150   50.9540   38.8020 C   0  0  3  0  0  0
   14.7620   49.5440   39.1890 Br  0  0  0  0  0  0
   16.8480   50.8430   37.6880 C   0  0  0  0  0  0
   16.9380   49.8420   36.7410 N   0  0  0  0  0  0
   17.0860   45.2010   33.5880 I   0  0  0  0  0  0
   20.1913   48.9950   31.9887 H   0  0  0  0  0  0
   19.1285   46.7668   31.8990 H   0  0  0  0  0  0
   16.9488   47.7058   35.4895 H   0  0  0  0  0  0
   18.7136   53.7121   37.9293 H   0  0  0  0  0  0
   17.1113   54.0097   39.8073 H   0  0  0  0  0  0
   15.4615   52.2413   40.4523 H   0  0  0  0  0  0
  1  2  1  0  0  0
  2  3  2  0  0  0
  2  4  1  0  0  0
  4  5  2  0  0  0
  4 13  1  0  0  0
  5  6  1  0  0  0
  6  7  2  0  0  0
  6 11  1  0  0  0
  7  8  1  0  0  0
  7 23  1  0  0  0
  8  9  2  0  0  0
  8 24  1  0  0  0
  9 10  1  0  0  0
  9 22  1  0  0  0
 10 11  2  0  0  0
 10 25  1  0  0  0
 11 12  1  0  0  0
 12 13  2  0  0  0
 12 21  1  0  0  0
 13 14  1  0  0  0
 14 15  2  0  0  0
 14 20  1  0  0  0
 15 16  1  0  0  0
 15 26  1  0  0  0
 16 17  2  0  0  0
 16 27  1  0  0  0
 17 18  1  0  0  0
 17 28  1  0  0  0
 18 19  1  0  0  0
 18 20  1  0  0  0
 20 21  2  0  0  0
M  CHG  1   1  -1
M  END
> <s_m_source_file>
../4yll_ligand.sdf

> <i_m_source_file_index>
1

> <s_epik_input>
W0NIXTFbQ0hdPVtDSF1bQ0hdKEJyKUMoPU4yKUM9MWMoYyhuMylDKD1PKVtPSF0pYzJjKGMzNClbY0hdYyhJKVtjSF1bY0hdNA==

> <s_epik_cmdline>
J2VwaWtfYXBwJywgJy1pbWFlJywgJ2xpZ2FuZF9wcm8ubWFlJywgJy1vbWFlJywgJ2xpZ2FuZF9wcmVwLm1hZScsICctbXMnLCAnMScsICctcGgnLCAnNycsICctcGh0JywgJzAuNScsICctbnQn

> <r_lp_tautomer_probability>
1

> <r_epik_Ionization_Penalty>
  0.0000

> <r_epik_Ionization_Penalty_Charging>
  0.0000

> <r_epik_Ionization_Penalty_Neutral>
  0.0000

> <r_epik_State_Penalty>
 -0.0000

> <r_epik_Charging_Adjusted_Penalty>
1.08134716981678e-05

> <i_epik_Tot_Q>
-1

> <i_epik_Tot_abs_Q>
1

> <s_epik_Chemistry_Notes>
This compound has an imine and may undergo hydrolysis.

$$$$
