4ym2_ligand
                    3D
 Schrodinger Suite 2020-3.
 48 49  0  0  1  0            999 V2000
  -48.7670   26.9760   38.6600 C   0  0  2  0  0  0
  -47.8720   28.1710   39.0190 C   0  0  1  0  0  0
  -46.4440   27.8250   38.5800 C   0  0  2  0  0  0
  -45.9370   26.5300   39.2730 C   0  0  2  0  0  0
  -46.9570   25.4330   38.9410 C   0  0  1  0  0  0
  -46.6120   24.0720   39.5460 C   0  0  0  0  0  0
  -50.1720   27.2070   38.9270 O   0  0  0  0  0  0
  -48.2750   29.3360   38.3030 O   0  0  0  0  0  0
  -45.5320   28.9480   38.6070 O   0  0  0  0  0  0
  -45.7560   26.5850   40.6960 O   0  0  0  0  0  0
  -48.2560   25.8520   39.3820 O   0  0  0  0  0  0
  -47.7000   23.1710   39.3170 O   0  0  0  0  0  0
  -44.4250   29.1050   37.5200 S   0  0  0  0  0  0
  -44.6560   30.4380   36.6110 O   0  5  0  0  0  0
  -44.4690   28.0170   36.6000 O   0  0  0  0  0  0
  -43.1220   29.1010   38.1190 O   0  0  0  0  0  0
  -53.2330   25.6130   40.4530 C   0  0  2  0  0  0
  -51.8560   26.2330   40.4760 C   0  0  2  0  0  0
  -51.1680   26.2980   39.1090 C   0  0  1  0  0  0
  -52.1290   26.3410   37.8710 C   0  0  1  0  0  0
  -51.7300   26.3100   36.3800 C   0  0  0  0  0  0
  -54.0670   26.2030   39.3280 C   0  0  2  0  0  0
  -55.4090   25.6900   39.3900 O   0  0  0  0  0  0
  -53.8790   25.8600   41.7030 O   0  0  0  0  0  0
  -50.9980   25.4780   41.3220 O   0  0  0  0  0  0
  -53.4540   25.8070   38.1100 O   0  0  0  0  0  0
  -52.5960   27.1570   35.6400 O   0  0  0  0  0  0
  -48.7678   26.7355   37.5866 H   0  0  0  0  0  0
  -47.9634   28.4352   40.0829 H   0  0  0  0  0  0
  -46.4356   27.6617   37.4922 H   0  0  0  0  0  0
  -44.8989   26.3349   38.9660 H   0  0  0  0  0  0
  -47.0093   25.3102   37.8491 H   0  0  0  0  0  0
  -45.7000   23.6805   39.0717 H   0  0  0  0  0  0
  -46.4440   24.1834   40.6274 H   0  0  0  0  0  0
  -49.2757   29.7628   38.4656 H   0  0  0  0  0  0
  -45.0582   27.3139   41.1339 H   0  0  0  0  0  0
  -47.6414   22.1343   39.6802 H   0  0  0  0  0  0
  -53.1558   24.5213   40.3421 H   0  0  0  0  0  0
  -51.9861   27.2418   40.8949 H   0  0  0  0  0  0
  -50.5166   25.4132   39.1619 H   0  0  0  0  0  0
  -52.1922   27.4389   37.8963 H   0  0  0  0  0  0
  -50.6931   26.6605   36.2706 H   0  0  0  0  0  0
  -51.8112   25.2809   36.0000 H   0  0  0  0  0  0
  -54.1438   27.3001   39.3507 H   0  0  0  0  0  0
  -56.0378   25.8994   40.2679 H   0  0  0  0  0  0
  -53.4215   25.5049   42.6382 H   0  0  0  0  0  0
  -51.2814   25.2928   42.3686 H   0  0  0  0  0  0
  -52.4645   27.2636   34.5531 H   0  0  0  0  0  0
  1  2  1  0  0  0
  1  7  1  0  0  0
  1 11  1  0  0  0
  1 28  1  0  0  0
  2  3  1  0  0  0
  2  8  1  0  0  0
  2 29  1  0  0  0
  3  4  1  0  0  0
  3  9  1  0  0  0
  3 30  1  0  0  0
  4  5  1  0  0  0
  4 10  1  0  0  0
  4 31  1  0  0  0
  5  6  1  0  0  0
  5 11  1  0  0  0
  5 32  1  0  0  0
  6 12  1  0  0  0
  6 33  1  0  0  0
  6 34  1  0  0  0
  7 19  1  0  0  0
  8 35  1  0  0  0
  9 13  1  0  0  0
 10 36  1  0  0  0
 12 37  1  0  0  0
 13 14  1  0  0  0
 13 15  2  0  0  0
 13 16  2  0  0  0
 17 18  1  0  0  0
 17 22  1  0  0  0
 17 24  1  0  0  0
 17 38  1  0  0  0
 18 19  1  0  0  0
 18 25  1  0  0  0
 18 39  1  0  0  0
 19 20  1  0  0  0
 19 40  1  0  0  0
 20 21  1  0  0  0
 20 26  1  0  0  0
 20 41  1  0  0  0
 21 27  1  0  0  0
 21 42  1  0  0  0
 21 43  1  0  0  0
 22 23  1  0  0  0
 22 26  1  0  0  0
 22 44  1  0  0  0
 23 45  1  0  0  0
 24 46  1  0  0  0
 25 47  1  0  0  0
 27 48  1  0  0  0
M  CHG  1  14  -1
M  END
> <s_m_source_file>
../4ym2_ligand.sdf

> <i_m_source_file_index>
1

> <s_epik_input>
W09IXVtDQEBIXTFPW0NASF0oW0NIMl1bT0hdKVtDQEhdKFtDQEhdKFtPSF0pW0NASF0xW09IXSlPW0NASF0yW0NASF0oW09IXSlbQ0BASF0oT1MoPU8pKD1PKVtPSF0pW0NAQEhdKFtPSF0pW0NASF0oTzIpW0NIMl1bT0hd

> <s_epik_cmdline>
J2VwaWtfYXBwJywgJy1pbWFlJywgJ2xpZ2FuZF9wcm8ubWFlJywgJy1vbWFlJywgJ2xpZ2FuZF9wcmVwLm1hZScsICctbXMnLCAnMScsICctcGgnLCAnNycsICctcGh0JywgJzAuNScsICctbnQn

> <r_lp_tautomer_probability>
1

> <r_epik_Ionization_Penalty>
  0.0001

> <r_epik_Ionization_Penalty_Charging>
  0.0000

> <r_epik_Ionization_Penalty_Neutral>
  0.0001

> <r_epik_State_Penalty>
 -0.0000

> <r_epik_Charging_Adjusted_Penalty>
8.08664993272533e-11

> <i_epik_Tot_Q>
-1

> <i_epik_Tot_abs_Q>
1

> <s_epik_Chemistry_Notes>
This compound contains an acetal/aminal-like group ( X-CH(R)-Y where X, Y are N, S, or O) that may be acid/base labile, releasing an aldehyde.

$$$$
