4ymb_ligand
                    3D
 Schrodinger Suite 2020-3.
 38 39  0  0  1  0            999 V2000
   -1.0740   38.1410  -11.5570 N   0  3  0  0  0  0
   -0.4070   39.2550  -12.2680 C   0  0  1  0  0  0
    0.0770   38.6800  -13.6300 C   0  0  2  0  0  0
   -1.4330   40.4100  -12.3910 C   0  0  0  0  0  0
   -2.5350   40.3470  -11.7970 O   0  5  0  0  0  0
   -1.1180   41.3880  -13.0770 O   0  0  0  0  0  0
    3.8210   40.5040  -14.9560 C   0  0  0  0  0  0
   -1.0480   36.9480  -12.4490 C   0  0  0  0  0  0
    0.1710   37.1600  -13.3640 C   0  0  1  0  0  0
    5.0070   39.3320  -13.0390 C   0  0  0  0  0  0
    2.6190   40.7380  -15.6760 C   0  0  0  0  0  0
    3.7890   39.6590  -13.8230 C   0  0  0  0  0  0
    5.0380   38.2000  -12.5140 O   0  0  0  0  0  0
    5.9450   40.1520  -12.9220 O   0  5  0  0  0  0
    1.3640   39.3250  -14.1150 C   0  0  0  0  0  0
    1.4010   40.1650  -15.2510 C   0  0  0  0  0  0
    2.5660   39.0780  -13.4150 C   0  0  0  0  0  0
    0.2340   36.2190  -14.6020 C   0  0  0  0  0  0
    0.1850   34.7170  -14.2510 C   0  0  0  0  0  0
    1.0630   33.8630  -15.1840 C   0  0  0  0  0  0
   -0.5359   37.9288  -10.6214 H   0  0  0  0  0  0
   -2.1123   38.4221  -11.3271 H   0  0  0  0  0  0
    0.4613   39.6385  -11.7121 H   0  0  0  0  0  0
   -0.5881   38.9024  -14.4775 H   0  0  0  0  0  0
    4.7545   40.9692  -15.2725 H   0  0  0  0  0  0
   -0.9450   36.0374  -11.8405 H   0  0  0  0  0  0
   -1.9840   36.9002  -13.0248 H   0  0  0  0  0  0
    1.1327   36.8776  -12.9108 H   0  0  0  0  0  0
    2.6374   41.3668  -16.5662 H   0  0  0  0  0  0
    0.4836   40.3716  -15.8022 H   0  0  0  0  0  0
    2.5504   38.4257  -12.5419 H   0  0  0  0  0  0
   -0.6200   36.4260  -15.2637 H   0  0  0  0  0  0
    1.1723   36.3944  -15.1486 H   0  0  0  0  0  0
    0.5426   34.5692  -13.2213 H   0  0  0  0  0  0
   -0.8501   34.3543  -14.3352 H   0  0  0  0  0  0
    0.9905   32.8057  -14.8894 H   0  0  0  0  0  0
    2.1092   34.1941  -15.1076 H   0  0  0  0  0  0
    0.7165   33.9792  -16.2215 H   0  0  0  0  0  0
  1  2  1  0  0  0
  1  8  1  0  0  0
  1 21  1  0  0  0
  1 22  1  0  0  0
  2  3  1  0  0  0
  2  4  1  0  0  0
  2 23  1  0  0  0
  3  9  1  0  0  0
  3 15  1  0  0  0
  3 24  1  0  0  0
  4  5  1  0  0  0
  4  6  2  0  0  0
  7 11  2  0  0  0
  7 12  1  0  0  0
  7 25  1  0  0  0
  8  9  1  0  0  0
  8 26  1  0  0  0
  8 27  1  0  0  0
  9 18  1  0  0  0
  9 28  1  0  0  0
 10 12  1  0  0  0
 10 13  2  0  0  0
 10 14  1  0  0  0
 11 16  1  0  0  0
 11 29  1  0  0  0
 12 17  2  0  0  0
 15 16  2  0  0  0
 15 17  1  0  0  0
 16 30  1  0  0  0
 17 31  1  0  0  0
 18 19  1  0  0  0
 18 32  1  0  0  0
 18 33  1  0  0  0
 19 20  1  0  0  0
 19 34  1  0  0  0
 19 35  1  0  0  0
 20 36  1  0  0  0
 20 37  1  0  0  0
 20 38  1  0  0  0
M  CHG  3   1   1   5  -1  14  -1
M  END
> <s_m_source_file>
../4ymb_ligand.sdf

> <i_m_source_file_index>
1

> <s_epik_input>
W09IXUMoPU8pW0NASF0xW05IMitdW0NIMl1bQ0BASF0oW0NIMl1bQ0gyXVtDSDNdKVtDQEBIXTFjKFtjSF0yKVtjSF1bY0hdW2NIXWMyQyg9TylbT0hd

> <s_epik_cmdline>
J2VwaWtfYXBwJywgJy1pbWFlJywgJ2xpZ2FuZF9wcm8ubWFlJywgJy1vbWFlJywgJ2xpZ2FuZF9wcmVwLm1hZScsICctbXMnLCAnMScsICctcGgnLCAnNycsICctcGh0JywgJzAuNScsICctbnQn

> <r_lp_tautomer_probability>
1

> <r_epik_Ionization_Penalty>
  0.0009

> <r_epik_Ionization_Penalty_Charging>
  0.0009

> <r_epik_Ionization_Penalty_Neutral>
  0.0000

> <r_epik_State_Penalty>
 -0.0000

> <r_epik_Charging_Adjusted_Penalty>
0.000851032269683849

> <i_epik_Tot_Q>
-1

> <i_epik_Tot_abs_Q>
3

$$$$
