4ymg_ligand
                    3D
 Schrodinger Suite 2020-3.
 50 52  0  0  1  0            999 V2000
   -4.0180    7.5480  -17.4640 N   0  3  0  0  0  0
   -5.3000    7.8020  -18.1180 C   0  0  2  0  0  0
   -6.1900    8.7130  -17.2910 C   0  0  0  0  0  0
   -7.1650    9.2710  -17.7980 O   0  5  0  0  0  0
   -5.9610    8.9050  -16.1000 O   0  0  0  0  0  0
   -6.0770    6.5230  -18.4530 C   0  0  0  0  0  0
   -5.2550    5.2980  -18.8470 C   0  0  0  0  0  0
   -6.3410    3.9720  -19.4690 S   0  0  2  0  0  0
   -6.7670    3.1870  -17.8780 C   0  0  0  0  0  0
   -5.1600    2.7360  -20.0860 C   0  0  0  0  0  0
   -4.4550    3.1360  -21.3820 C   0  0  1  0  0  0
   -3.3260    2.3090  -21.5760 O   0  0  0  0  0  0
   -5.3370    2.9620  -22.6150 C   0  0  1  0  0  0
   -5.3060    4.1420  -23.3840 O   0  0  0  0  0  0
   -4.6890    1.8380  -23.4180 C   0  0  1  0  0  0
   -4.7600    2.0130  -24.8190 O   0  0  0  0  0  0
   -3.2570    1.9150  -22.9360 C   0  0  2  0  0  0
   -2.5680    0.6280  -22.9970 N   0  0  0  0  0  0
   -3.0530   -0.6120  -22.6600 C   0  0  0  0  0  0
   -2.0570   -1.5100  -22.8410 N   0  0  0  0  0  0
   -0.9560   -0.8530  -23.2780 C   0  0  0  0  0  0
    0.3210   -1.2680  -23.6130 C   0  0  0  0  0  0
    0.6670   -2.5550  -23.5420 N   0  0  0  0  0  0
    1.2360   -0.3240  -24.0280 N   0  0  0  0  0  0
    0.9060    1.0150  -24.1110 C   0  0  0  0  0  0
   -0.3650    1.4230  -23.7780 N   0  0  0  0  0  0
   -1.2690    0.4980  -23.3670 C   0  0  0  0  0  0
   -3.5176    8.5048  -17.2540 H   0  0  0  0  0  0
   -3.3833    6.9396  -18.1251 H   0  0  0  0  0  0
   -4.1882    7.0084  -16.5207 H   0  0  0  0  0  0
   -4.9885    8.3052  -19.0452 H   0  0  0  0  0  0
   -6.6690    6.2141  -17.5789 H   0  0  0  0  0  0
   -6.7495    6.7143  -19.3022 H   0  0  0  0  0  0
   -4.5407    5.5742  -19.6366 H   0  0  0  0  0  0
   -4.7057    4.9272  -17.9691 H   0  0  0  0  0  0
   -7.4968    3.8133  -17.3439 H   0  0  0  0  0  0
   -5.8586    3.0803  -17.2669 H   0  0  0  0  0  0
   -7.2025    2.1941  -18.0640 H   0  0  0  0  0  0
   -4.3775    2.5678  -19.3314 H   0  0  0  0  0  0
   -5.6877    1.7913  -20.2838 H   0  0  0  0  0  0
   -4.1145    4.1774  -21.2846 H   0  0  0  0  0  0
   -6.4010    2.8052  -22.3839 H   0  0  0  0  0  0
   -5.7281    5.0736  -22.9791 H   0  0  0  0  0  0
   -5.1937    0.8641  -23.3359 H   0  0  0  0  0  0
   -5.7346    1.9841  -25.3282 H   0  0  0  0  0  0
   -2.6639    2.6235  -23.5328 H   0  0  0  0  0  0
   -4.0610   -0.8334  -22.3091 H   0  0  0  0  0  0
   -0.0668   -3.3043  -23.2103 H   0  0  0  0  0  0
    1.6860   -2.8665  -23.8152 H   0  0  0  0  0  0
    1.6478    1.7435  -24.4382 H   0  0  0  0  0  0
  1  2  1  0  0  0
  1 28  1  0  0  0
  1 29  1  0  0  0
  1 30  1  0  0  0
  2  3  1  0  0  0
  2  6  1  0  0  0
  2 31  1  0  0  0
  3  4  1  0  0  0
  3  5  2  0  0  0
  6  7  1  0  0  0
  6 32  1  0  0  0
  6 33  1  0  0  0
  7  8  1  0  0  0
  7 34  1  0  0  0
  7 35  1  0  0  0
  8  9  1  0  0  0
  8 10  1  0  0  0
  9 36  1  0  0  0
  9 37  1  0  0  0
  9 38  1  0  0  0
 10 11  1  0  0  0
 10 39  1  0  0  0
 10 40  1  0  0  0
 11 12  1  0  0  0
 11 13  1  0  0  0
 11 41  1  0  0  0
 12 17  1  0  0  0
 13 14  1  0  0  0
 13 15  1  0  0  0
 13 42  1  0  0  0
 14 43  1  0  0  0
 15 16  1  0  0  0
 15 17  1  0  0  0
 15 44  1  0  0  0
 16 45  1  0  0  0
 17 18  1  0  0  0
 17 46  1  0  0  0
 18 19  1  0  0  0
 18 27  1  0  0  0
 19 20  2  0  0  0
 19 47  1  0  0  0
 20 21  1  0  0  0
 21 22  2  0  0  0
 21 27  1  0  0  0
 22 23  1  0  0  0
 22 24  1  0  0  0
 23 48  1  0  0  0
 23 49  1  0  0  0
 24 25  2  0  0  0
 25 26  1  0  0  0
 25 50  1  0  0  0
 26 27  2  0  0  0
M  CHG  2   1   1   4  -1
M  END
> <s_m_source_file>
../4ymg_ligand.sdf

> <i_m_source_file_index>
1

> <s_epik_input>
W09IXUMoPU8pW0NAQEhdKFtOSDMrXSlbQ0gyXVtDSDJdW1NASF0oW0NIM10pW0NIMl1bQ0BIXTFPW0NASF0oW0NASF0oW09IXSlbQ0BASF0xW09IXSluKFtjSF1uMiljKGMyMyluW2NIXW5jM1tOSDJd

> <s_epik_cmdline>
J2VwaWtfYXBwJywgJy1pbWFlJywgJ2xpZ2FuZF9wcm8ubWFlJywgJy1vbWFlJywgJ2xpZ2FuZF9wcmVwLm1hZScsICctbXMnLCAnMScsICctcGgnLCAnNycsICctcGh0JywgJzAuNScsICctbnQn

> <r_lp_tautomer_probability>
1

> <r_epik_Ionization_Penalty>
  0.0015

> <r_epik_Ionization_Penalty_Charging>
  0.0011

> <r_epik_Ionization_Penalty_Neutral>
  0.0004

> <r_epik_State_Penalty>
 -0.0000

> <r_epik_Charging_Adjusted_Penalty>
0.00106610994672706

> <i_epik_Tot_Q>
0

> <i_epik_Tot_abs_Q>
2

> <s_epik_Chemistry_Notes>
This compound contains an acetal/aminal-like group ( X-CH(R)-Y where X, Y are N, S, or O) that may be acid/base labile, releasing an aldehyde.

$$$$
