4ymh_ligand
                    3D
 Schrodinger Suite 2020-3.
 46 48  0  0  1  0            999 V2000
   35.0570  270.9920  160.8450 N   0  3  0  0  0  0
   35.6070  271.7730  159.7730 C   0  0  1  0  0  0
   37.1020  271.5180  159.6020 C   0  0  0  0  0  0
   37.9350  271.3650  160.8710 C   0  0  0  0  0  0
   39.6430  271.2590  160.4860 S   0  0  0  0  0  0
   34.9170  271.4720  158.4700 C   0  0  0  0  0  0
   34.9670  272.2710  157.5650 O   0  0  0  0  0  0
   34.3210  270.4130  158.3450 O   0  5  0  0  0  0
   40.2420  271.1180  162.1200 C   0  0  0  0  0  0
   40.1790  272.4030  162.9310 C   0  0  1  0  0  0
   40.5030  272.1230  164.2800 O   0  0  0  0  0  0
   41.1850  273.4330  162.4770 C   0  0  1  0  0  0
   40.5590  274.6660  162.2140 O   0  0  0  0  0  0
   42.1400  273.5670  163.6350 C   0  0  1  0  0  0
   42.6950  274.8380  163.7570 O   0  0  0  0  0  0
   41.3120  273.1370  164.8210 C   0  0  2  0  0  0
   42.1070  272.5930  165.9310 N   0  0  0  0  0  0
   43.1950  271.8480  165.8620 C   0  0  0  0  0  0
   43.6320  271.5380  167.0700 N   0  0  0  0  0  0
   42.8130  272.0840  167.9350 C   0  0  0  0  0  0
   42.6900  272.1370  169.3900 C   0  0  0  0  0  0
   43.5880  271.5180  170.1230 N   0  0  0  0  0  0
   41.6730  272.8030  169.9300 N   0  0  0  0  0  0
   40.7770  273.4050  169.1560 C   0  0  0  0  0  0
   40.8140  273.3980  167.8370 N   0  0  0  0  0  0
   41.7940  272.7640  167.1830 C   0  0  0  0  0  0
   35.5810  271.2342  161.7814 H   0  0  0  0  0  0
   35.1820  269.9223  160.6209 H   0  0  0  0  0  0
   33.9867  271.2212  160.9539 H   0  0  0  0  0  0
   35.4094  272.8093  160.0846 H   0  0  0  0  0  0
   37.2528  270.5854  159.0386 H   0  0  0  0  0  0
   37.5564  272.3557  159.0527 H   0  0  0  0  0  0
   37.7720  272.2353  161.5237 H   0  0  0  0  0  0
   37.6332  270.4487  161.3995 H   0  0  0  0  0  0
   39.6492  270.3682  162.6644 H   0  0  0  0  0  0
   41.2967  270.8063  162.0983 H   0  0  0  0  0  0
   39.1538  272.7968  162.8692 H   0  0  0  0  0  0
   41.6665  273.1933  161.5175 H   0  0  0  0  0  0
   39.8276  274.7482  161.3965 H   0  0  0  0  0  0
   43.0880  273.0212  163.5192 H   0  0  0  0  0  0
   43.3166  275.2468  162.9468 H   0  0  0  0  0  0
   40.7236  273.9524  165.2670 H   0  0  0  0  0  0
   43.6692  271.5312  164.9331 H   0  0  0  0  0  0
   44.4150  270.9775  169.6394 H   0  0  0  0  0  0
   43.5126  271.5403  171.2202 H   0  0  0  0  0  0
   39.9595  273.9385  169.6410 H   0  0  0  0  0  0
  1  2  1  0  0  0
  1 27  1  0  0  0
  1 28  1  0  0  0
  1 29  1  0  0  0
  2  3  1  0  0  0
  2  6  1  0  0  0
  2 30  1  0  0  0
  3  4  1  0  0  0
  3 31  1  0  0  0
  3 32  1  0  0  0
  4  5  1  0  0  0
  4 33  1  0  0  0
  4 34  1  0  0  0
  5  9  1  0  0  0
  6  7  2  0  0  0
  6  8  1  0  0  0
  9 10  1  0  0  0
  9 35  1  0  0  0
  9 36  1  0  0  0
 10 11  1  0  0  0
 10 12  1  0  0  0
 10 37  1  0  0  0
 11 16  1  0  0  0
 12 13  1  0  0  0
 12 14  1  0  0  0
 12 38  1  0  0  0
 13 39  1  0  0  0
 14 15  1  0  0  0
 14 16  1  0  0  0
 14 40  1  0  0  0
 15 41  1  0  0  0
 16 17  1  0  0  0
 16 42  1  0  0  0
 17 18  1  0  0  0
 17 26  1  0  0  0
 18 19  2  0  0  0
 18 43  1  0  0  0
 19 20  1  0  0  0
 20 21  2  0  0  0
 20 26  1  0  0  0
 21 22  1  0  0  0
 21 23  1  0  0  0
 22 44  1  0  0  0
 22 45  1  0  0  0
 23 24  2  0  0  0
 24 25  1  0  0  0
 24 46  1  0  0  0
 25 26  2  0  0  0
M  CHG  2   1   1   8  -1
M  END
> <s_m_source_file>
../4ymh_ligand.sdf

> <i_m_source_file_index>
1

> <s_epik_input>
Tz1DKFtPSF0pW0NAQEhdKFtOSDMrXSlbQ0gyXVtDSDJdU1tDSDJdW0NASF0xT1tDQEhdKFtDQEhdKFtPSF0pW0NAQEhdMVtPSF0pbihbY0hdbjIpYyhjMjMpbltjSF1uYzNbTkgyXQ==

> <s_epik_cmdline>
J2VwaWtfYXBwJywgJy1pbWFlJywgJ2xpZ2FuZF9wcm8ubWFlJywgJy1vbWFlJywgJ2xpZ2FuZF9wcmVwLm1hZScsICctbXMnLCAnMScsICctcGgnLCAnNycsICctcGh0JywgJzAuNScsICctbnQn

> <r_lp_tautomer_probability>
1

> <r_epik_Ionization_Penalty>
  0.0026

> <r_epik_Ionization_Penalty_Charging>
  0.0022

> <r_epik_Ionization_Penalty_Neutral>
  0.0004

> <r_epik_State_Penalty>
 -0.0000

> <r_epik_Charging_Adjusted_Penalty>
0.00216156469931729

> <i_epik_Tot_Q>
0

> <i_epik_Tot_abs_Q>
2

> <s_epik_Chemistry_Notes>
This compound contains an acetal/aminal-like group ( X-CH(R)-Y where X, Y are N, S, or O) that may be acid/base labile, releasing an aldehyde.

$$$$
