4ymj_ligand
                    3D
 Schrodinger Suite 2020-3.
 40 43  0  0  1  0            999 V2000
  -29.2550   -9.1720   -5.7260 C   0  0  0  0  0  0
  -30.3940   -8.3800   -5.6430 C   0  0  0  0  0  0
  -30.6120   -7.3800   -6.5720 C   0  0  0  0  0  0
  -27.6180   -4.2630  -11.3560 C   0  0  0  0  0  0
  -27.0210   -5.1240  -10.4140 C   0  0  0  0  0  0
  -24.9650   -5.6160   -9.1290 C   0  0  0  0  0  0
  -24.6470   -7.0920   -9.1440 C   0  0  0  0  0  0
  -24.4080   -7.7790   -7.9650 C   0  0  0  0  0  0
  -24.1200   -9.1330   -7.9790 C   0  0  0  0  0  0
  -24.0660   -9.8180   -9.1740 C   0  0  0  0  0  0
  -24.3010   -9.1450  -10.3540 C   0  0  0  0  0  0
  -24.5920   -7.7920  -10.3390 C   0  0  0  0  0  0
  -28.8810  -11.1100   -4.0610 N   0  0  0  0  0  0
  -29.0440  -10.2440   -4.7850 C   0  0  0  0  0  0
  -28.3360   -8.9400   -6.7390 C   0  0  0  0  0  0
  -28.5640   -7.9410   -7.6670 C   0  0  0  0  0  0
  -29.7040   -7.1520   -7.5990 C   0  0  0  0  0  0
  -29.9700   -6.1110   -8.6120 C   0  0  0  0  0  0
  -29.0340   -5.5640   -9.4660 N   0  0  0  0  0  0
  -29.7070   -4.6960  -10.3100 C   0  0  0  0  0  0
  -31.0040   -4.6560  -10.0200 N   0  0  0  0  0  0
  -31.1580   -5.5280   -8.9730 C   0  0  0  0  0  0
  -27.6850   -5.8280   -9.4640 N   0  0  0  0  0  0
  -28.9450   -4.0370  -11.3050 C   0  0  0  0  0  0
  -25.6420   -5.1820  -10.3430 N   0  0  0  0  0  0
  -31.1164   -8.5477   -4.8442 H   0  0  0  0  0  0
  -31.5072   -6.7626   -6.4981 H   0  0  0  0  0  0
  -27.0094   -3.7823  -12.1219 H   0  0  0  0  0  0
  -25.6210   -5.3909   -8.2752 H   0  0  0  0  0  0
  -24.0320   -5.0408   -9.0361 H   0  0  0  0  0  0
  -24.4472   -7.2469   -7.0145 H   0  0  0  0  0  0
  -23.9354   -9.6590   -7.0423 H   0  0  0  0  0  0
  -23.8391  -10.8841   -9.1859 H   0  0  0  0  0  0
  -24.2575   -9.6805  -11.3024 H   0  0  0  0  0  0
  -24.7801   -7.2709  -11.2777 H   0  0  0  0  0  0
  -27.4326   -9.5465   -6.8033 H   0  0  0  0  0  0
  -27.8388   -7.7706   -8.4628 H   0  0  0  0  0  0
  -32.1111   -5.7334   -8.4856 H   0  0  0  0  0  0
  -29.4221   -3.3611  -12.0147 H   0  0  0  0  0  0
  -25.0546   -4.8924  -11.2268 H   0  0  0  0  0  0
  1  2  2  0  0  0
  1 14  1  0  0  0
  1 15  1  0  0  0
  2  3  1  0  0  0
  2 26  1  0  0  0
  3 17  2  0  0  0
  3 27  1  0  0  0
  4  5  1  0  0  0
  4 24  2  0  0  0
  4 28  1  0  0  0
  5 23  2  0  0  0
  5 25  1  0  0  0
  6  7  1  0  0  0
  6 25  1  0  0  0
  6 29  1  0  0  0
  6 30  1  0  0  0
  7  8  2  0  0  0
  7 12  1  0  0  0
  8  9  1  0  0  0
  8 31  1  0  0  0
  9 10  2  0  0  0
  9 32  1  0  0  0
 10 11  1  0  0  0
 10 33  1  0  0  0
 11 12  2  0  0  0
 11 34  1  0  0  0
 12 35  1  0  0  0
 13 14  3  0  0  0
 15 16  2  0  0  0
 15 36  1  0  0  0
 16 17  1  0  0  0
 16 37  1  0  0  0
 17 18  1  0  0  0
 18 19  1  0  0  0
 18 22  2  0  0  0
 19 20  1  0  0  0
 19 23  1  0  0  0
 20 21  2  0  0  0
 20 24  1  0  0  0
 21 22  1  0  0  0
 22 38  1  0  0  0
 24 39  1  0  0  0
 25 40  1  0  0  0
M  END
> <s_m_source_file>
../4ymj_ligand.sdf

> <i_m_source_file_index>
1

> <s_epik_input>
TiNDYzFbY0hdW2NIXWMoW2NIXVtjSF0xKS1jMltjSF1uYyhuMjMpW2NIXVtjSF1jKG4zKVtOSF1bQ0gyXWM0W2NIXVtjSF1bY0hdW2NIXVtjSF00

> <s_epik_cmdline>
J2VwaWtfYXBwJywgJy1pbWFlJywgJ2xpZ2FuZF9wcm8ubWFlJywgJy1vbWFlJywgJ2xpZ2FuZF9wcmVwLm1hZScsICctbXMnLCAnMScsICctcGgnLCAnNycsICctcGh0JywgJzAuNScsICctbnQn

> <r_lp_tautomer_probability>
0.99999999999948

> <r_epik_Ionization_Penalty>
  0.0114

> <r_epik_Ionization_Penalty_Charging>
  0.0000

> <r_epik_Ionization_Penalty_Neutral>
  0.0114

> <r_epik_State_Penalty>
  0.0087

> <r_epik_Charging_Adjusted_Penalty>
0.0087451008959497

> <i_epik_Tot_Q>
0

> <i_epik_Tot_abs_Q>
0

$$$$
