4ynb_ligand
                    3D
 Schrodinger Suite 2020-3.
 44 47  0  0  1  0            999 V2000
   10.9160   43.5010  -34.1690 O   0  0  0  0  0  0
   10.7600   44.5310  -35.1530 C   0  0  2  0  0  0
   12.0970   45.2110  -35.3860 C   0  0  1  0  0  0
   12.2720   45.9360  -36.7190 C   0  0  0  0  0  0
   12.4680   44.8460  -38.1080 S   0  0  0  0  0  0
    9.8660   45.6060  -34.5540 C   0  0  0  0  0  0
   10.8150   46.2880  -33.6560 N   0  0  1  0  0  0
   12.1490   46.2810  -34.2910 C   0  0  0  0  0  0
   10.3970   47.6350  -33.2810 C   0  0  0  0  0  0
   10.4270   48.8120  -34.2490 C   0  0  0  0  0  0
    9.5840   49.1300  -35.4190 C   0  0  0  0  0  0
    8.6140   48.4230  -36.0410 N   0  0  0  0  0  0
    8.0250   48.9590  -37.1330 C   0  0  0  0  0  0
   11.2410   49.9330  -34.1020 C   0  0  0  0  0  0
   10.9940   50.8600  -35.0760 N   0  3  0  0  0  0
   10.0260   50.4410  -35.8880 C   0  0  0  0  0  0
    9.3520   50.9480  -37.0750 C   0  0  0  0  0  0
    8.3750   50.1700  -37.6510 N   0  0  0  0  0  0
    9.7150   52.1520  -37.5720 N   0  0  0  0  0  0
   14.0890   44.3700  -38.3850 C   0  0  0  0  0  0
   15.1510   44.8250  -37.6120 C   0  0  0  0  0  0
   16.3960   44.3980  -37.9010 N   0  0  0  0  0  0
   16.6500   43.5430  -38.9080 C   0  0  0  0  0  0
   15.5960   43.0890  -39.6770 C   0  0  0  0  0  0
   14.3530   43.5160  -39.4080 N   0  0  0  0  0  0
   11.5303   42.6161  -34.3917 H   0  0  0  0  0  0
   10.3595   44.0463  -36.0556 H   0  0  0  0  0  0
   12.8731   44.4314  -35.3825 H   0  0  0  0  0  0
   11.3877   46.5598  -36.9159 H   0  0  0  0  0  0
   13.1677   46.5730  -36.6751 H   0  0  0  0  0  0
    9.4792   46.2506  -35.3571 H   0  0  0  0  0  0
    9.0248   45.1318  -34.0272 H   0  0  0  0  0  0
   12.9320   46.0227  -33.5628 H   0  0  0  0  0  0
   12.3766   47.2576  -34.7431 H   0  0  0  0  0  0
    9.3438   47.6172  -32.9641 H   0  0  0  0  0  0
   11.0233   47.9958  -32.4518 H   0  0  0  0  0  0
    7.2314   48.3952  -37.6233 H   0  0  0  0  0  0
   11.9808   50.0554  -33.3109 H   0  0  0  0  0  0
   10.5027   52.7373  -37.0751 H   0  0  0  0  0  0
    9.2226   52.5461  -38.4732 H   0  0  0  0  0  0
   14.9796   45.5154  -36.7862 H   0  0  0  0  0  0
   17.6688   43.2144  -39.1134 H   0  0  0  0  0  0
   15.7727   42.3903  -40.4948 H   0  0  0  0  0  0
   11.5701   51.7967  -35.1026 H   0  0  0  0  0  0
  1  2  1  0  0  0
  1 26  1  0  0  0
  2  3  1  0  0  0
  2  6  1  0  0  0
  2 27  1  0  0  0
  3  4  1  0  0  0
  3  8  1  0  0  0
  3 28  1  0  0  0
  4  5  1  0  0  0
  4 29  1  0  0  0
  4 30  1  0  0  0
  5 20  1  0  0  0
  6  7  1  0  0  0
  6 31  1  0  0  0
  6 32  1  0  0  0
  7  8  1  0  0  0
  7  9  1  0  0  0
  8 33  1  0  0  0
  8 34  1  0  0  0
  9 10  1  0  0  0
  9 35  1  0  0  0
  9 36  1  0  0  0
 10 11  2  0  0  0
 10 14  1  0  0  0
 11 12  1  0  0  0
 11 16  1  0  0  0
 12 13  2  0  0  0
 13 18  1  0  0  0
 13 37  1  0  0  0
 14 15  2  0  0  0
 14 38  1  0  0  0
 15 16  1  0  0  0
 15 44  1  0  0  0
 16 17  2  0  0  0
 17 18  1  0  0  0
 17 19  1  0  0  0
 19 39  1  0  0  0
 19 40  1  0  0  0
 20 21  2  0  0  0
 20 25  1  0  0  0
 21 22  1  0  0  0
 21 41  1  0  0  0
 22 23  2  0  0  0
 23 24  1  0  0  0
 23 42  1  0  0  0
 24 25  2  0  0  0
 24 43  1  0  0  0
M  CHG  1  15   1
M  END
> <s_m_source_file>
../4ynb_ligand.sdf

> <i_m_source_file_index>
1

> <s_epik_input>
bjFbY0hdW2NIXW5bY0hdYzFTW0NIMl1bQ0BIXShbQ0BIXTJbT0hdKVtDSDJdW05ASCtdKFtDSDJdMilbQ0gyXWMzW2NIXW5jKGMzNCljKFtOSDJdKVtuSF1bY0hdbjQ=

> <s_epik_cmdline>
J2VwaWtfYXBwJywgJy1pbWFlJywgJ2xpZ2FuZF9wcm8ubWFlJywgJy1vbWFlJywgJ2xpZ2FuZF9wcmVwLm1hZScsICctbXMnLCAnMScsICctcGgnLCAnNycsICctcGh0JywgJzAuNScsICctbnQn

> <r_epik_Ionization_Penalty>
  0.0630

> <r_epik_Ionization_Penalty_Charging>
  0.0000

> <r_epik_Ionization_Penalty_Neutral>
  0.0630

> <r_epik_State_Penalty>
  0.0548

> <r_epik_Charging_Adjusted_Penalty>
0.0547790312081312

> <i_epik_Tot_Q>
1

> <i_epik_Tot_abs_Q>
1

$$$$
