4ynd_ligand
                    3D
 Schrodinger Suite 2020-3.
 79 82  0  0  1  0            999 V2000
  -16.9590   -3.7110   10.2890 C   0  0  0  0  0  0
  -11.7520  -16.4410    8.0490 C   0  0  0  0  0  0
   -8.9990  -16.3130    7.7290 C   0  0  0  0  0  0
   -9.8150  -15.4000    7.0930 C   0  0  0  0  0  0
  -14.5180   -4.8850    9.5790 C   0  0  0  0  0  0
  -15.5600   -5.6520   10.0750 C   0  0  0  0  0  0
  -17.3680   -6.9920   11.6810 C   0  0  0  0  0  0
  -15.9080   -7.3380   11.5530 C   0  0  0  0  0  0
   -7.1420  -10.8270   13.5190 C   0  0  0  0  0  0
   -9.7860   -9.5540   13.4230 C   0  0  0  0  0  0
   -9.0130   -9.8910   12.1510 C   0  0  0  0  0  0
   -9.2050  -14.3520    6.2240 C   0  0  0  0  0  0
   -8.9830  -13.0160    6.9190 C   0  0  0  0  0  0
  -10.5250   -7.0040   11.1320 C   0  0  0  0  0  0
  -12.3340   -5.7760   10.3720 C   0  0  0  0  0  0
  -15.9290   -2.9380    9.7970 C   0  0  0  0  0  0
  -14.7270   -3.5230    9.4500 C   0  0  0  0  0  0
  -11.1870  -15.4710    7.2490 C   0  0  0  0  0  0
  -16.7600   -5.0680   10.4210 C   0  0  0  0  0  0
  -10.9300  -17.3430    8.6910 C   0  0  0  0  0  0
   -9.5610  -17.2800    8.5330 C   0  0  0  0  0  0
   -9.6450   -9.9780    9.7510 C   0  0  0  0  0  0
   -7.8710  -10.4310   14.7930 C   0  0  0  0  0  0
   -9.3760  -10.4340   14.5910 C   0  0  0  0  0  0
   -7.5050   -9.9130   12.3600 C   0  0  0  0  0  0
   -9.9380  -11.4410    9.9700 C   0  0  0  0  0  0
  -10.2630  -12.1520    8.6760 C   0  0  0  0  0  0
   -9.2950   -7.8070   10.7740 C   0  0  0  0  0  0
  -13.2070   -5.4890    9.1750 C   0  0  2  0  0  0
  -17.7560   -5.9050   10.9270 N   0  0  0  0  0  0
   -9.1760  -13.0610    8.3610 N   0  3  0  0  0  0
  -11.2240   -6.6020    9.9300 N   0  3  0  0  0  0
   -9.4740   -9.2420   10.9230 N   0  0  0  0  0  0
  -18.1040   -7.6170   12.4270 O   0  0  0  0  0  0
   -9.5680   -9.5050    8.6230 O   0  0  0  0  0  0
  -15.4600   -7.0290   10.2310 O   0  0  0  0  0  0
  -12.4910   -4.6120    8.3170 O   0  0  0  0  0  0
  -11.6310  -18.5470    9.7010 Cl  0  0  0  0  0  0
   -8.5380  -18.4080    9.3330 Cl  0  0  0  0  0  0
  -17.9106   -3.2583   10.5677 H   0  0  0  0  0  0
  -12.8337  -16.4943    8.1724 H   0  0  0  0  0  0
   -7.9180  -16.2694    7.5962 H   0  0  0  0  0  0
  -15.3276   -6.7546   12.2829 H   0  0  0  0  0  0
  -15.7672   -8.4116   11.7466 H   0  0  0  0  0  0
   -6.0561  -10.7648   13.6835 H   0  0  0  0  0  0
   -7.4131  -11.8577   13.2466 H   0  0  0  0  0  0
   -9.5967   -8.5065   13.7004 H   0  0  0  0  0  0
  -10.8623   -9.6979   13.2470 H   0  0  0  0  0  0
   -9.3046  -10.9169   11.8818 H   0  0  0  0  0  0
   -8.2233  -14.6971    5.8675 H   0  0  0  0  0  0
   -9.8619  -14.1621    5.3624 H   0  0  0  0  0  0
   -7.9524  -12.6761    6.7394 H   0  0  0  0  0  0
   -9.6890  -12.2731    6.5195 H   0  0  0  0  0  0
  -11.1958   -7.6174   11.7515 H   0  0  0  0  0  0
  -10.2263   -6.1063   11.6932 H   0  0  0  0  0  0
  -11.9605   -4.8291   10.7889 H   0  0  0  0  0  0
  -12.9217   -6.3063   11.1358 H   0  0  0  0  0  0
  -16.0636   -1.8625    9.6816 H   0  0  0  0  0  0
  -13.9227   -2.8962    9.0648 H   0  0  0  0  0  0
  -11.8272  -14.7540    6.7351 H   0  0  0  0  0  0
   -7.6239  -11.1439   15.5935 H   0  0  0  0  0  0
   -7.5603   -9.4196   15.0940 H   0  0  0  0  0  0
   -9.8503  -10.0650   15.5123 H   0  0  0  0  0  0
   -9.6985  -11.4685   14.4016 H   0  0  0  0  0  0
   -7.1591   -8.8915   12.5764 H   0  0  0  0  0  0
   -7.0220  -10.2766   11.4410 H   0  0  0  0  0  0
   -9.0595  -11.9277   10.4186 H   0  0  0  0  0  0
  -10.7998  -11.5452   10.6456 H   0  0  0  0  0  0
  -11.2004  -12.7156    8.7928 H   0  0  0  0  0  0
  -10.3779  -11.4123    7.8700 H   0  0  0  0  0  0
   -9.0254   -7.6166    9.7247 H   0  0  0  0  0  0
   -8.4606   -7.5103   11.4266 H   0  0  0  0  0  0
  -13.4203   -6.4052    8.6049 H   0  0  0  0  0  0
  -18.8238   -5.7184   10.7399 H   0  0  0  0  0  0
   -9.4289  -14.0874    8.6652 H   0  0  0  0  0  0
   -8.2500  -12.7469    8.8649 H   0  0  0  0  0  0
  -10.5404   -6.0358    9.2803 H   0  0  0  0  0  0
  -11.5804   -7.4957    9.3968 H   0  0  0  0  0  0
  -12.9462   -4.2705    7.3756 H   0  0  0  0  0  0
  1 16  2  0  0  0
  1 19  1  0  0  0
  1 40  1  0  0  0
  2 18  2  0  0  0
  2 20  1  0  0  0
  2 41  1  0  0  0
  3  4  2  0  0  0
  3 21  1  0  0  0
  3 42  1  0  0  0
  4 12  1  0  0  0
  4 18  1  0  0  0
  5  6  1  0  0  0
  5 17  2  0  0  0
  5 29  1  0  0  0
  6 19  2  0  0  0
  6 36  1  0  0  0
  7  8  1  0  0  0
  7 30  1  0  0  0
  7 34  2  0  0  0
  8 36  1  0  0  0
  8 43  1  0  0  0
  8 44  1  0  0  0
  9 23  1  0  0  0
  9 25  1  0  0  0
  9 45  1  0  0  0
  9 46  1  0  0  0
 10 11  1  0  0  0
 10 24  1  0  0  0
 10 47  1  0  0  0
 10 48  1  0  0  0
 11 25  1  0  0  0
 11 33  1  0  0  0
 11 49  1  0  0  0
 12 13  1  0  0  0
 12 50  1  0  0  0
 12 51  1  0  0  0
 13 31  1  0  0  0
 13 52  1  0  0  0
 13 53  1  0  0  0
 14 28  1  0  0  0
 14 32  1  0  0  0
 14 54  1  0  0  0
 14 55  1  0  0  0
 15 29  1  0  0  0
 15 32  1  0  0  0
 15 56  1  0  0  0
 15 57  1  0  0  0
 16 17  1  0  0  0
 16 58  1  0  0  0
 17 59  1  0  0  0
 18 60  1  0  0  0
 19 30  1  0  0  0
 20 21  2  0  0  0
 20 38  1  0  0  0
 21 39  1  0  0  0
 22 26  1  0  0  0
 22 33  1  0  0  0
 22 35  2  0  0  0
 23 24  1  0  0  0
 23 61  1  0  0  0
 23 62  1  0  0  0
 24 63  1  0  0  0
 24 64  1  0  0  0
 25 65  1  0  0  0
 25 66  1  0  0  0
 26 27  1  0  0  0
 26 67  1  0  0  0
 26 68  1  0  0  0
 27 31  1  0  0  0
 27 69  1  0  0  0
 27 70  1  0  0  0
 28 33  1  0  0  0
 28 71  1  0  0  0
 28 72  1  0  0  0
 29 37  1  0  0  0
 29 73  1  0  0  0
 30 74  1  0  0  0
 31 75  1  0  0  0
 31 76  1  0  0  0
 32 77  1  0  0  0
 32 78  1  0  0  0
 37 79  1  0  0  0
M  CHG  2  31   1  32   1
M  END
> <s_m_source_file>
../4ynd_ligand.sdf

> <i_m_source_file_index>
1

> <s_epik_input>
TzFbQ0gyXUMoPU8pW05IXWMoYzEyKVtjSF1bY0hdW2NIXWMyW0NAQEhdKFtPSF0pW0NIMl1bTkgyK11bQ0gyXVtDSDJdTihbQ0hdM1tDSDJdW0NIMl1bQ0gyXVtDSDJdW0NIMl0zKUMoPU8pW0NIMl1bQ0gyXVtOSDIrXVtDSDJdW0NIMl1jNFtjSF1jKENsKWMoQ2wpW2NIXVtjSF00

> <s_epik_cmdline>
J2VwaWtfYXBwJywgJy1pbWFlJywgJ2xpZ2FuZF9wcm8ubWFlJywgJy1vbWFlJywgJ2xpZ2FuZF9wcmVwLm1hZScsICctbXMnLCAnMScsICctcGgnLCAnNycsICctcGh0JywgJzAuNScsICctbnQn

> <r_lp_tautomer_probability>
1

> <r_epik_Ionization_Penalty>
  0.0388

> <r_epik_Ionization_Penalty_Charging>
  0.0388

> <r_epik_Ionization_Penalty_Neutral>
  0.0000

> <r_epik_State_Penalty>
  0.0313

> <r_epik_Charging_Adjusted_Penalty>
0.0700822423383897

> <i_epik_Tot_Q>
2

> <i_epik_Tot_abs_Q>
2

$$$$
