4yne_ligand
                    3D
 Schrodinger Suite 2020-3.
 45 49  0  0  1  0            999 V2000
  -19.9980  -44.3260  -16.1310 C   0  0  0  0  0  0
  -20.4380  -45.3830  -15.3240 C   0  0  0  0  0  0
  -15.2790  -42.6470  -17.0400 C   0  0  0  0  0  0
  -16.0250  -42.1760  -14.7560 C   0  0  0  0  0  0
  -16.3250  -40.4720  -12.6020 C   0  0  0  0  0  0
  -15.8040  -39.8990  -13.8410 C   0  0  0  0  0  0
  -15.6720  -40.7300  -14.8990 C   0  0  0  0  0  0
  -17.0510  -40.8720  -10.5780 C   0  0  0  0  0  0
  -17.0680  -41.9980  -11.3300 C   0  0  0  0  0  0
  -17.5620  -43.3280  -10.7750 C   0  0  0  0  0  0
  -17.6680  -44.4910  -11.5560 C   0  0  0  0  0  0
  -18.1470  -45.6830  -10.9860 C   0  0  0  0  0  0
  -18.5280  -45.6970   -9.6310 C   0  0  0  0  0  0
  -18.4150  -44.5110   -8.8920 C   0  0  0  0  0  0
  -20.8920  -43.6110  -16.7900 F   0  0  0  0  0  0
  -19.4980  -46.1480  -14.6320 C   0  0  0  0  0  0
  -18.1350  -45.8380  -14.7570 C   0  0  0  0  0  0
  -17.6970  -44.7740  -15.5530 C   0  0  0  0  0  0
  -18.6380  -44.0040  -16.2280 C   0  0  0  0  0  0
  -16.1910  -44.4510  -15.6380 C   0  0  1  0  0  0
  -15.5150  -45.0850  -16.9000 C   0  0  0  0  0  0
  -15.3980  -43.9260  -17.9010 C   0  0  0  0  0  0
  -15.8600  -43.0260  -15.7490 N   0  0  0  0  0  0
  -16.4630  -42.5590  -13.6030 N   0  0  0  0  0  0
  -16.6300  -41.7330  -12.5490 N   0  0  0  0  0  0
  -16.5410  -39.8950  -11.5020 N   0  0  0  0  0  0
  -17.9510  -43.3750   -9.4720 N   0  0  0  0  0  0
  -21.5016  -45.6053  -15.2376 H   0  0  0  0  0  0
  -14.2200  -42.3639  -16.9484 H   0  0  0  0  0  0
  -15.8371  -41.8291  -17.5192 H   0  0  0  0  0  0
  -15.5331  -38.8454  -13.9093 H   0  0  0  0  0  0
  -15.3095  -40.3473  -15.8531 H   0  0  0  0  0  0
  -17.3481  -40.7398   -9.5376 H   0  0  0  0  0  0
  -17.3781  -44.4688  -12.6065 H   0  0  0  0  0  0
  -18.2228  -46.5886  -11.5878 H   0  0  0  0  0  0
  -18.9024  -46.6094   -9.1668 H   0  0  0  0  0  0
  -18.7028  -44.5011   -7.8407 H   0  0  0  0  0  0
  -19.8189  -46.9771  -14.0014 H   0  0  0  0  0  0
  -17.4007  -46.4400  -14.2217 H   0  0  0  0  0  0
  -18.3187  -43.1534  -16.8301 H   0  0  0  0  0  0
  -15.8146  -44.8040  -14.6665 H   0  0  0  0  0  0
  -14.5295  -45.4885  -16.6243 H   0  0  0  0  0  0
  -16.1486  -45.8969  -17.2864 H   0  0  0  0  0  0
  -16.2903  -43.8558  -18.5405 H   0  0  0  0  0  0
  -14.5023  -44.0284  -18.5313 H   0  0  0  0  0  0
  1  2  2  0  0  0
  1 15  1  0  0  0
  1 19  1  0  0  0
  2 16  1  0  0  0
  2 28  1  0  0  0
  3 22  1  0  0  0
  3 23  1  0  0  0
  3 29  1  0  0  0
  3 30  1  0  0  0
  4  7  1  0  0  0
  4 23  1  0  0  0
  4 24  2  0  0  0
  5  6  1  0  0  0
  5 25  1  0  0  0
  5 26  2  0  0  0
  6  7  2  0  0  0
  6 31  1  0  0  0
  7 32  1  0  0  0
  8  9  2  0  0  0
  8 26  1  0  0  0
  8 33  1  0  0  0
  9 10  1  0  0  0
  9 25  1  0  0  0
 10 11  2  0  0  0
 10 27  1  0  0  0
 11 12  1  0  0  0
 11 34  1  0  0  0
 12 13  2  0  0  0
 12 35  1  0  0  0
 13 14  1  0  0  0
 13 36  1  0  0  0
 14 27  2  0  0  0
 14 37  1  0  0  0
 16 17  2  0  0  0
 16 38  1  0  0  0
 17 18  1  0  0  0
 17 39  1  0  0  0
 18 19  2  0  0  0
 18 20  1  0  0  0
 19 40  1  0  0  0
 20 21  1  0  0  0
 20 23  1  0  0  0
 20 41  1  0  0  0
 21 22  1  0  0  0
 21 42  1  0  0  0
 21 43  1  0  0  0
 22 44  1  0  0  0
 22 45  1  0  0  0
 24 25  1  0  0  0
M  END
> <s_m_source_file>
../4yne_ligand.sdf

> <i_m_source_file_index>
1

> <s_epik_input>
RmMxW2NIXVtjSF1bY0hdYyhbY0hdMSlbQ0BIXTJbQ0gyXVtDSDJdW0NIMl1OMmMoW2NIXVtjSF0zKW5uKGMzNCljKFtjSF1uNCktYzVbY0hdW2NIXVtjSF1bY0hdbjU=

> <s_epik_cmdline>
J2VwaWtfYXBwJywgJy1pbWFlJywgJ2xpZ2FuZF9wcm8ubWFlJywgJy1vbWFlJywgJ2xpZ2FuZF9wcmVwLm1hZScsICctbXMnLCAnMScsICctcGgnLCAnNycsICctcGh0JywgJzAuNScsICctbnQn

> <r_lp_tautomer_probability>
1

> <r_epik_Ionization_Penalty>
  0.0032

> <r_epik_Ionization_Penalty_Charging>
  0.0000

> <r_epik_Ionization_Penalty_Neutral>
  0.0032

> <r_epik_State_Penalty>
 -0.0000

> <r_epik_Charging_Adjusted_Penalty>
0

> <i_epik_Tot_Q>
0

> <i_epik_Tot_abs_Q>
0

$$$$
