4yo8_ligand
                    3D
 Schrodinger Suite 2020-3.
 43 44  0  0  1  0            999 V2000
   -5.5250   17.3280  -24.3980 C   0  0  0  0  0  0
   -6.7760   18.0880  -24.7460 N   0  0  1  0  0  0
   -6.6580   19.3520  -23.9770 C   0  0  0  0  0  0
   -7.4880   19.3940  -22.6990 C   0  0  0  0  0  0
   -8.0980   20.8050  -22.5740 C   0  0  0  0  0  0
   -8.6290   21.8200  -20.3270 C   0  0  0  0  0  0
   -9.6050   21.8550  -19.1700 C   0  0  0  0  0  0
   -6.8010   18.1470  -26.2190 C   0  0  0  0  0  0
   -6.6810   19.4910  -26.8960 C   0  0  0  0  0  0
   -5.6870   20.5540  -26.7670 C   0  0  0  0  0  0
   -4.5850   20.6290  -26.0240 N   0  0  0  0  0  0
   -7.5600   19.9960  -27.8490 C   0  0  0  0  0  0
   -7.1930   21.2350  -28.2650 N   0  3  0  0  0  0
   -6.0880   21.6320  -27.6620 C   0  0  0  0  0  0
   -5.2110   22.8110  -27.6940 C   0  0  0  0  0  0
   -5.4650   23.8670  -28.4830 N   0  0  0  0  0  0
   -4.1270   22.7880  -26.9030 N   0  0  0  0  0  0
   -3.8320   21.7450  -26.1220 C   0  0  0  0  0  0
   -5.4990   17.2130  -22.9950 O   0  0  0  0  0  0
   -9.1480   20.9530  -21.4670 C   0  0  0  0  0  0
   -5.5552   16.3356  -24.8716 H   0  0  0  0  0  0
   -4.6466   17.8813  -24.7618 H   0  0  0  0  0  0
   -5.6093   19.5055  -23.6826 H   0  0  0  0  0  0
   -6.9903   20.1939  -24.6021 H   0  0  0  0  0  0
   -8.2856   18.6386  -22.7549 H   0  0  0  0  0  0
   -6.8415   19.1814  -21.8348 H   0  0  0  0  0  0
   -7.3010   21.5309  -22.3554 H   0  0  0  0  0  0
   -8.5918   21.0761  -23.5188 H   0  0  0  0  0  0
   -8.4746   22.8405  -20.7074 H   0  0  0  0  0  0
   -7.6687   21.4073  -19.9843 H   0  0  0  0  0  0
   -9.1993   22.4882  -18.3672 H   0  0  0  0  0  0
   -9.7594   20.8345  -18.7896 H   0  0  0  0  0  0
  -10.5653   22.2678  -19.5127 H   0  0  0  0  0  0
   -5.9656   17.5569  -26.6238 H   0  0  0  0  0  0
   -7.7526   17.7353  -26.5864 H   0  0  0  0  0  0
   -8.4362   19.4620  -28.2167 H   0  0  0  0  0  0
   -6.3576   23.8712  -29.1259 H   0  0  0  0  0  0
   -4.7805   24.7281  -28.4867 H   0  0  0  0  0  0
   -2.9224   21.7988  -25.5239 H   0  0  0  0  0  0
   -4.6672   16.6890  -22.5014 H   0  0  0  0  0  0
  -10.0530   21.4222  -21.8804 H   0  0  0  0  0  0
   -9.4003   19.9603  -21.0658 H   0  0  0  0  0  0
   -7.7998   21.7662  -29.0131 H   0  0  0  0  0  0
  1  2  1  0  0  0
  1 19  1  0  0  0
  1 21  1  0  0  0
  1 22  1  0  0  0
  2  3  1  0  0  0
  2  8  1  0  0  0
  3  4  1  0  0  0
  3 23  1  0  0  0
  3 24  1  0  0  0
  4  5  1  0  0  0
  4 25  1  0  0  0
  4 26  1  0  0  0
  5 20  1  0  0  0
  5 27  1  0  0  0
  5 28  1  0  0  0
  6  7  1  0  0  0
  6 20  1  0  0  0
  6 29  1  0  0  0
  6 30  1  0  0  0
  7 31  1  0  0  0
  7 32  1  0  0  0
  7 33  1  0  0  0
  8  9  1  0  0  0
  8 34  1  0  0  0
  8 35  1  0  0  0
  9 10  2  0  0  0
  9 12  1  0  0  0
 10 11  1  0  0  0
 10 14  1  0  0  0
 11 18  2  0  0  0
 12 13  2  0  0  0
 12 36  1  0  0  0
 13 14  1  0  0  0
 13 43  1  0  0  0
 14 15  2  0  0  0
 15 16  1  0  0  0
 15 17  1  0  0  0
 16 37  1  0  0  0
 16 38  1  0  0  0
 17 18  1  0  0  0
 18 39  1  0  0  0
 19 40  1  0  0  0
 20 41  1  0  0  0
 20 42  1  0  0  0
M  CHG  1  13   1
M  END
> <s_m_source_file>
../4yo8_ligand.sdf

> <i_m_source_file_index>
1

> <s_epik_input>
W0NIM11bQ0gyXVtDSDJdW0NIMl1bQ0gyXVtDSDJdW05ASCtdKFtDSDJdW09IXSlbQ0gyXWMxW2NIXW5jKGMxMiljKFtOSDJdKVtuSF1bY0hdbjI=

> <s_epik_cmdline>
J2VwaWtfYXBwJywgJy1pbWFlJywgJ2xpZ2FuZF9wcm8ubWFlJywgJy1vbWFlJywgJ2xpZ2FuZF9wcmVwLm1hZScsICctbXMnLCAnMScsICctcGgnLCAnNycsICctcGh0JywgJzAuNScsICctbnQn

> <r_lp_tautomer_probability>
1

> <r_epik_Ionization_Penalty>
  0.0076

> <r_epik_Ionization_Penalty_Charging>
  0.0000

> <r_epik_Ionization_Penalty_Neutral>
  0.0076

> <r_epik_State_Penalty>
 -0.0000

> <r_epik_Charging_Adjusted_Penalty>
3.87225722364671e-07

> <i_epik_Tot_Q>
1

> <i_epik_Tot_abs_Q>
1

> <s_epik_Chemistry_Notes>
This compound contains an acetal/aminal-like group ( X-CH(R)-Y where X, Y are N, S, or O) that may be acid/base labile, releasing an aldehyde.

$$$$
