4yoj_ligand
                    3D
 Schrodinger Suite 2020-3.
 55 59  0  0  1  0            999 V2000
   -7.2430  -21.3800   29.1620 O   0  0  0  0  0  0
   -7.1720  -22.2470   28.2890 C   0  0  0  0  0  0
   -5.9340  -22.9520   28.0780 N   0  0  0  0  0  0
   -5.8890  -23.9870   27.0560 C   0  0  0  0  0  0
   -6.1110  -25.2840   27.4670 C   0  0  0  0  0  0
   -6.0660  -26.3340   26.5300 C   0  0  0  0  0  0
   -5.8270  -26.0580   25.2230 C   0  0  0  0  0  0
   -5.7380  -27.1000   24.2740 N   0  0  0  0  0  0
   -6.4850  -28.3320   24.2740 C   0  0  0  0  0  0
   -6.1560  -29.3070   23.1450 C   0  0  0  0  0  0
   -4.8740  -29.2630   22.6120 C   0  0  0  0  0  0
   -4.5150  -30.1510   21.5470 C   0  0  0  0  0  0
   -5.4660  -31.0620   21.0580 C   0  0  0  0  0  0
   -6.7590  -31.1050   21.5980 C   0  0  0  0  0  0
   -7.1190  -30.2180   22.6610 C   0  0  0  0  0  0
   -7.3500  -28.6070   25.1170 O   0  0  0  0  0  0
   -5.5860  -24.7420   24.8090 C   0  0  0  0  0  0
   -5.6240  -23.7000   25.7340 C   0  0  0  0  0  0
   -4.7460  -22.6620   28.8600 C   0  0  0  0  0  0
   -3.6100  -22.4580   27.8530 C   0  0  0  0  0  0
   -2.5760  -23.4450   27.5160 C   0  0  0  0  0  0
   -1.6020  -22.8570   26.3850 S   0  0  0  0  0  0
   -2.2520  -21.3850   26.1480 C   0  0  0  0  0  0
   -3.4050  -21.2120   27.0040 C   0  0  0  0  0  0
   -8.3670  -22.6100   27.4090 C   0  0  0  0  0  0
   -9.5580  -21.9350   27.8030 N   0  0  0  0  0  0
  -10.5200  -22.4960   28.6230 C   0  0  0  0  0  0
  -10.6240  -23.7560   29.2770 C   0  0  0  0  0  0
  -11.7490  -24.0230   30.0610 C   0  0  0  0  0  0
  -12.7690  -23.0660   30.1980 C   0  0  0  0  0  0
  -12.6580  -21.8240   29.5470 C   0  0  0  0  0  0
  -11.5290  -21.5440   28.7570 C   0  0  0  0  0  0
  -11.1210  -20.4310   28.0020 N   0  0  0  0  0  0
   -9.9430  -20.6900   27.4400 N   0  0  0  0  0  0
   -6.3210  -25.4963   28.5153 H   0  0  0  0  0  0
   -6.2223  -27.3633   26.8528 H   0  0  0  0  0  0
   -5.0421  -27.0140   23.4264 H   0  0  0  0  0  0
   -4.1434  -28.5549   23.0030 H   0  0  0  0  0  0
   -3.5127  -30.1202   21.1197 H   0  0  0  0  0  0
   -5.1958  -31.7424   20.2504 H   0  0  0  0  0  0
   -7.4895  -31.8138   21.2081 H   0  0  0  0  0  0
   -8.1206  -30.2453   23.0901 H   0  0  0  0  0  0
   -5.3684  -24.5323   23.7617 H   0  0  0  0  0  0
   -5.4466  -22.6725   25.4164 H   0  0  0  0  0  0
   -4.9129  -21.7535   29.4572 H   0  0  0  0  0  0
   -4.5329  -23.5076   29.5306 H   0  0  0  0  0  0
   -2.4839  -24.4325   27.9682 H   0  0  0  0  0  0
   -1.8747  -20.6395   25.4480 H   0  0  0  0  0  0
   -4.0333  -20.3219   27.0361 H   0  0  0  0  0  0
   -8.1509  -22.3357   26.3659 H   0  0  0  0  0  0
   -8.5537  -23.6922   27.4723 H   0  0  0  0  0  0
   -9.8369  -24.5021   29.1676 H   0  0  0  0  0  0
  -11.8365  -24.9823   30.5711 H   0  0  0  0  0  0
  -13.6451  -23.2859   30.8080 H   0  0  0  0  0  0
  -13.4465  -21.0792   29.6549 H   0  0  0  0  0  0
  1  2  2  0  0  0
  2  3  1  0  0  0
  2 25  1  0  0  0
  3  4  1  0  0  0
  3 19  1  0  0  0
  4  5  2  0  0  0
  4 18  1  0  0  0
  5  6  1  0  0  0
  5 35  1  0  0  0
  6  7  2  0  0  0
  6 36  1  0  0  0
  7  8  1  0  0  0
  7 17  1  0  0  0
  8  9  1  0  0  0
  8 37  1  0  0  0
  9 10  1  0  0  0
  9 16  2  0  0  0
 10 11  2  0  0  0
 10 15  1  0  0  0
 11 12  1  0  0  0
 11 38  1  0  0  0
 12 13  2  0  0  0
 12 39  1  0  0  0
 13 14  1  0  0  0
 13 40  1  0  0  0
 14 15  2  0  0  0
 14 41  1  0  0  0
 15 42  1  0  0  0
 17 18  2  0  0  0
 17 43  1  0  0  0
 18 44  1  0  0  0
 19 20  1  0  0  0
 19 45  1  0  0  0
 19 46  1  0  0  0
 20 21  2  0  0  0
 20 24  1  0  0  0
 21 22  1  0  0  0
 21 47  1  0  0  0
 22 23  1  0  0  0
 23 24  2  0  0  0
 23 48  1  0  0  0
 24 49  1  0  0  0
 25 26  1  0  0  0
 25 50  1  0  0  0
 25 51  1  0  0  0
 26 27  1  0  0  0
 26 34  1  0  0  0
 27 28  1  0  0  0
 27 32  2  0  0  0
 28 29  2  0  0  0
 28 52  1  0  0  0
 29 30  1  0  0  0
 29 53  1  0  0  0
 30 31  2  0  0  0
 30 54  1  0  0  0
 31 32  1  0  0  0
 31 55  1  0  0  0
 32 33  1  0  0  0
 33 34  2  0  0  0
M  END
> <s_m_source_file>
../4yoj_ligand.sdf

> <i_m_source_file_index>
1

> <s_epik_input>
W2NIXTFbY0hdW2NIXVtjSF1jKGMxMilubm4yW0NIMl1DKD1PKU4oW0NIMl1jM1tjSF1zW2NIXVtjSF0zKWM0W2NIXVtjSF1jKFtjSF1bY0hdNClbTkhdQyg9TyljNVtjSF1bY0hdW2NIXVtjSF1bY0hdNQ==

> <s_epik_cmdline>
J2VwaWtfYXBwJywgJy1pbWFlJywgJ2xpZ2FuZF9wcm8ubWFlJywgJy1vbWFlJywgJ2xpZ2FuZF9wcmVwLm1hZScsICctbXMnLCAnMScsICctcGgnLCAnNycsICctcGh0JywgJzAuNScsICctbnQn

> <r_lp_tautomer_probability>
1

> <r_epik_Ionization_Penalty>
  0.0000

> <r_epik_Ionization_Penalty_Charging>
  0.0000

> <r_epik_Ionization_Penalty_Neutral>
  0.0000

> <r_epik_State_Penalty>
 -0.0000

> <r_epik_Charging_Adjusted_Penalty>
0

> <i_epik_Tot_Q>
0

> <i_epik_Tot_abs_Q>
0

$$$$
