4yoz_ligand
                    3D
 Schrodinger Suite 2020-3.
155156  0  0  1  0            999 V2000
   -6.7930   37.9550   35.3040 N   0  3  0  0  0  0
   -5.8890   37.3930   36.3010 C   0  0  2  0  0  0
   -4.8020   36.5430   35.6540 C   0  0  0  0  0  0
   -3.6150   36.7280   35.9250 O   0  0  0  0  0  0
   -6.6670   36.5600   37.3200 C   0  0  0  0  0  0
   -7.6080   37.3990   38.1620 C   0  0  0  0  0  0
   -7.2400   37.7360   39.3080 O   0  0  0  0  0  0
   -8.7150   37.7240   37.6810 O   0  0  0  0  0  0
   -5.2100   35.6130   34.7970 N   0  0  0  0  0  0
   -4.2570   34.7550   34.1020 C   0  0  2  0  0  0
   -3.6910   35.4400   32.8630 C   0  0  0  0  0  0
   -2.8630   34.8710   32.1540 O   0  0  0  0  0  0
   -4.9030   33.4240   33.7170 C   0  0  0  0  0  0
   -4.7120   32.2840   34.7180 C   0  0  0  0  0  0
   -5.2740   30.9760   34.1740 C   0  0  0  0  0  0
   -3.2390   32.1420   35.0650 C   0  0  0  0  0  0
   -4.1450   36.6610   32.6070 N   0  0  0  0  0  0
   -3.6680   37.4280   31.4660 C   0  0  2  0  0  0
   -2.2920   38.0270   31.7470 C   0  0  0  0  0  0
   -1.9260   38.2550   32.9000 O   0  0  0  0  0  0
   -4.6710   38.5280   31.1080 C   0  0  0  0  0  0
   -6.0090   37.9990   30.6350 C   0  0  0  0  0  0
   -6.1170   37.2980   29.4380 C   0  0  0  0  0  0
   -7.1670   38.2050   31.3790 C   0  0  0  0  0  0
   -7.3360   36.8130   28.9980 C   0  0  0  0  0  0
   -8.3910   37.7230   30.9460 C   0  0  0  0  0  0
   -8.4680   37.0290   29.7550 C   0  0  0  0  0  0
   -9.6820   36.5480   29.3160 O   0  0  0  0  0  0
   -1.5270   38.2670   30.6870 N   0  0  0  0  0  0
   -0.1790   38.8070   30.8260 C   0  0  2  0  0  0
   -0.1440   40.2970   30.4920 C   0  0  0  0  0  0
   -0.4490   40.7060   29.3730 O   0  0  0  0  0  0
    0.8010   38.0460   29.9380 C   0  0  0  0  0  0
    2.4890   38.6650   30.0390 S   0  0  0  0  0  0
    0.2300   41.1010   31.4770 N   0  0  0  0  0  0
    0.1760   42.5500   31.3470 C   0  0  2  0  0  0
    1.5180   43.1450   30.9410 C   0  0  0  0  0  0
    1.6790   44.3620   30.8910 O   0  0  0  0  0  0
   -0.3290   43.1530   32.6540 C   0  0  0  0  0  0
   -1.7290   42.6800   32.9600 C   0  0  0  0  0  0
   -2.8370   43.3820   32.4960 C   0  0  0  0  0  0
   -1.9470   41.5010   33.6630 C   0  0  0  0  0  0
   -4.1250   42.9390   32.7530 C   0  0  0  0  0  0
   -3.2280   41.0490   33.9220 C   0  0  0  0  0  0
   -4.3140   41.7720   33.4670 C   0  0  0  0  0  0
   -5.5890   41.3230   33.7280 O   0  0  0  0  0  0
    2.4820   42.2730   30.6670 N   0  0  0  0  0  0
    3.7840   42.6940   30.1690 C   0  0  2  0  0  0
    3.7020   43.1180   28.7050 C   0  0  0  0  0  0
    2.7700   42.7460   27.9950 O   0  0  0  0  0  0
    4.8020   41.5630   30.3300 C   0  0  0  0  0  0
    4.7720   40.9020   31.6940 C   0  0  0  0  0  0
    5.6130   39.6400   31.7540 C   0  0  0  0  0  0
    6.7430   39.6530   31.2220 O   0  0  0  0  0  0
    5.1430   38.6360   32.3300 O   0  0  0  0  0  0
    4.6810   43.9090   28.2700 N   0  0  0  0  0  0
    4.8380   44.2980   26.8680 C   0  0  2  0  0  0
    6.3050   44.0700   26.4450 C   0  0  0  0  0  0
    7.1010   43.5580   27.2330 O   0  0  0  0  0  0
    4.4140   45.7580   26.6690 C   0  0  0  0  0  0
    3.5450   46.3080   27.8080 C   0  0  0  0  0  0
    3.4240   47.8200   27.7960 C   0  0  0  0  0  0
    3.7800   48.4720   26.8160 O   0  0  0  0  0  0
    2.9430   48.3880   28.8990 N   0  0  0  0  0  0
    6.6660   44.4510   25.2200 N   0  0  0  0  0  0
    8.0140   44.1800   24.6990 C   0  0  2  0  0  0
    8.6510   45.4560   24.0820 C   0  0  0  0  0  0
    7.9430   46.4480   23.9030 O   0  0  0  0  0  0
    7.9550   42.9920   23.7100 C   0  0  0  0  0  0
    7.4740   42.8990   22.2600 C   0  0  0  0  0  0
    8.4000   43.5670   21.2740 C   0  0  0  0  0  0
    7.3980   41.4270   21.9440 C   0  0  0  0  0  0
    9.9610   45.4870   23.7840 N   0  0  0  0  0  0
   10.9110   44.3600   23.8080 C   0  0  2  0  0  0
   11.2260   43.7940   25.1870 C   0  0  0  0  0  0
   11.4420   44.5330   26.1450 O   0  0  0  0  0  0
   12.2240   44.7710   23.1290 C   0  0  0  0  0  0
   12.0050   45.3680   21.7510 C   0  0  0  0  0  0
   10.8710   45.5010   21.3030 O   0  0  0  0  0  0
   13.0930   45.6930   21.0550 N   0  0  0  0  0  0
   11.2730   42.5820   25.3830 O   0  0  0  0  0  0
   -6.2165   38.5501   34.5804 H   0  0  0  0  0  0
   -7.5330   38.5990   35.8016 H   0  0  0  0  0  0
   -7.3112   37.1397   34.7780 H   0  0  0  0  0  0
   -5.4263   38.2647   36.7870 H   0  0  0  0  0  0
   -7.2681   35.8042   36.7933 H   0  0  0  0  0  0
   -5.9616   36.0592   37.9994 H   0  0  0  0  0  0
   -9.4146   38.3324   38.2729 H   0  0  0  0  0  0
   -6.2887   35.4966   34.6158 H   0  0  0  0  0  0
   -3.4485   34.5891   34.8291 H   0  0  0  0  0  0
   -5.9889   33.5615   33.6078 H   0  0  0  0  0  0
   -4.4802   33.0733   32.7640 H   0  0  0  0  0  0
   -5.2652   32.5222   35.6385 H   0  0  0  0  0  0
   -6.3389   31.1071   33.9317 H   0  0  0  0  0  0
   -5.1649   30.1866   34.9322 H   0  0  0  0  0  0
   -4.7237   30.6903   33.2654 H   0  0  0  0  0  0
   -2.8602   33.0985   35.4543 H   0  0  0  0  0  0
   -2.6748   31.8642   34.1625 H   0  0  0  0  0  0
   -3.1161   31.3605   35.8293 H   0  0  0  0  0  0
   -4.8998   37.0909   33.2819 H   0  0  0  0  0  0
   -3.5873   36.7052   30.6408 H   0  0  0  0  0  0
   -4.8598   39.1540   31.9925 H   0  0  0  0  0  0
   -4.2598   39.1502   30.2995 H   0  0  0  0  0  0
   -5.2247   37.1277   28.8356 H   0  0  0  0  0  0
   -7.1096   38.7550   32.3183 H   0  0  0  0  0  0
   -7.4009   36.2636   28.0588 H   0  0  0  0  0  0
   -9.2882   37.8906   31.5419 H   0  0  0  0  0  0
   -9.7439   35.9950   28.3671 H   0  0  0  0  0  0
   -1.9318   38.0490   29.6877 H   0  0  0  0  0  0
    0.0801   38.6600   31.8849 H   0  0  0  0  0  0
    0.8196   36.9873   30.2359 H   0  0  0  0  0  0
    0.4827   38.1260   28.8881 H   0  0  0  0  0  0
    3.2841   38.1941   29.4423 H   0  0  0  0  0  0
    0.5886   40.6457   32.4119 H   0  0  0  0  0  0
   -0.5314   42.7493   30.5285 H   0  0  0  0  0  0
    0.3343   42.8505   33.4777 H   0  0  0  0  0  0
   -0.3363   44.2500   32.5730 H   0  0  0  0  0  0
   -2.6897   44.2959   31.9206 H   0  0  0  0  0  0
   -1.0934   40.9226   34.0163 H   0  0  0  0  0  0
   -4.9828   43.5077   32.3941 H   0  0  0  0  0  0
   -3.3803   40.1266   34.4825 H   0  0  0  0  0  0
   -6.4576   41.8942   33.3684 H   0  0  0  0  0  0
    2.2734   41.2049   30.8269 H   0  0  0  0  0  0
    4.0649   43.5597   30.7868 H   0  0  0  0  0  0
    4.6016   40.7803   29.5836 H   0  0  0  0  0  0
    5.8173   41.9596   30.1818 H   0  0  0  0  0  0
    5.1608   41.6013   32.4489 H   0  0  0  0  0  0
    3.7368   40.6284   31.9462 H   0  0  0  0  0  0
    5.7321   37.7088   32.3874 H   0  0  0  0  0  0
    5.3931   44.2735   29.0250 H   0  0  0  0  0  0
    4.1661   43.6587   26.2765 H   0  0  0  0  0  0
    5.3091   46.3940   26.6033 H   0  0  0  0  0  0
    3.8317   45.8474   25.7401 H   0  0  0  0  0  0
    2.5290   45.8943   27.7266 H   0  0  0  0  0  0
    3.9821   46.0190   28.7751 H   0  0  0  0  0  0
    2.6371   47.7630   29.7510 H   0  0  0  0  0  0
    2.8513   49.4825   28.9589 H   0  0  0  0  0  0
    5.9306   44.9788   24.5950 H   0  0  0  0  0  0
    8.6286   43.8934   25.5651 H   0  0  0  0  0  0
    8.9691   42.5966   23.5509 H   0  0  0  0  0  0
    7.3139   42.2005   24.1254 H   0  0  0  0  0  0
    6.5084   43.4148   22.1526 H   0  0  0  0  0  0
    8.4606   44.6422   21.4984 H   0  0  0  0  0  0
    8.0127   43.4265   20.2541 H   0  0  0  0  0  0
    9.4019   43.1194   21.3507 H   0  0  0  0  0  0
    6.7241   40.9328   22.6593 H   0  0  0  0  0  0
    8.4018   40.9835   22.0194 H   0  0  0  0  0  0
    7.0126   41.2907   20.9228 H   0  0  0  0  0  0
   10.3062   46.4913   23.4974 H   0  0  0  0  0  0
   10.3644   43.5763   23.2630 H   0  0  0  0  0  0
   11.6675   44.1025   27.1318 H   0  0  0  0  0  0
   12.7360   45.5239   23.7463 H   0  0  0  0  0  0
   12.8705   43.8882   23.0162 H   0  0  0  0  0  0
   14.0905   45.5563   21.4980 H   0  0  0  0  0  0
   12.9941   46.0981   20.0371 H   0  0  0  0  0  0
  1  2  1  0  0  0
  1 82  1  0  0  0
  1 83  1  0  0  0
  1 84  1  0  0  0
  2  3  1  0  0  0
  2  5  1  0  0  0
  2 85  1  0  0  0
  3  4  2  0  0  0
  3  9  1  0  0  0
  5  6  1  0  0  0
  5 86  1  0  0  0
  5 87  1  0  0  0
  6  7  2  0  0  0
  6  8  1  0  0  0
  8 88  1  0  0  0
  9 10  1  0  0  0
  9 89  1  0  0  0
 10 11  1  0  0  0
 10 13  1  0  0  0
 10 90  1  0  0  0
 11 12  2  0  0  0
 11 17  1  0  0  0
 13 14  1  0  0  0
 13 91  1  0  0  0
 13 92  1  0  0  0
 14 15  1  0  0  0
 14 16  1  0  0  0
 14 93  1  0  0  0
 15 94  1  0  0  0
 15 95  1  0  0  0
 15 96  1  0  0  0
 16 97  1  0  0  0
 16 98  1  0  0  0
 16 99  1  0  0  0
 17 18  1  0  0  0
 17100  1  0  0  0
 18 19  1  0  0  0
 18 21  1  0  0  0
 18101  1  0  0  0
 19 20  2  0  0  0
 19 29  1  0  0  0
 21 22  1  0  0  0
 21102  1  0  0  0
 21103  1  0  0  0
 22 23  2  0  0  0
 22 24  1  0  0  0
 23 25  1  0  0  0
 23104  1  0  0  0
 24 26  2  0  0  0
 24105  1  0  0  0
 25 27  2  0  0  0
 25106  1  0  0  0
 26 27  1  0  0  0
 26107  1  0  0  0
 27 28  1  0  0  0
 28108  1  0  0  0
 29 30  1  0  0  0
 29109  1  0  0  0
 30 31  1  0  0  0
 30 33  1  0  0  0
 30110  1  0  0  0
 31 32  2  0  0  0
 31 35  1  0  0  0
 33 34  1  0  0  0
 33111  1  0  0  0
 33112  1  0  0  0
 34113  1  0  0  0
 35 36  1  0  0  0
 35114  1  0  0  0
 36 37  1  0  0  0
 36 39  1  0  0  0
 36115  1  0  0  0
 37 38  2  0  0  0
 37 47  1  0  0  0
 39 40  1  0  0  0
 39116  1  0  0  0
 39117  1  0  0  0
 40 41  2  0  0  0
 40 42  1  0  0  0
 41 43  1  0  0  0
 41118  1  0  0  0
 42 44  2  0  0  0
 42119  1  0  0  0
 43 45  2  0  0  0
 43120  1  0  0  0
 44 45  1  0  0  0
 44121  1  0  0  0
 45 46  1  0  0  0
 46122  1  0  0  0
 47 48  1  0  0  0
 47123  1  0  0  0
 48 49  1  0  0  0
 48 51  1  0  0  0
 48124  1  0  0  0
 49 50  2  0  0  0
 49 56  1  0  0  0
 51 52  1  0  0  0
 51125  1  0  0  0
 51126  1  0  0  0
 52 53  1  0  0  0
 52127  1  0  0  0
 52128  1  0  0  0
 53 54  2  0  0  0
 53 55  1  0  0  0
 55129  1  0  0  0
 56 57  1  0  0  0
 56130  1  0  0  0
 57 58  1  0  0  0
 57 60  1  0  0  0
 57131  1  0  0  0
 58 59  2  0  0  0
 58 65  1  0  0  0
 60 61  1  0  0  0
 60132  1  0  0  0
 60133  1  0  0  0
 61 62  1  0  0  0
 61134  1  0  0  0
 61135  1  0  0  0
 62 63  2  0  0  0
 62 64  1  0  0  0
 64136  1  0  0  0
 64137  1  0  0  0
 65 66  1  0  0  0
 65138  1  0  0  0
 66 67  1  0  0  0
 66 69  1  0  0  0
 66139  1  0  0  0
 67 68  2  0  0  0
 67 73  1  0  0  0
 69 70  1  0  0  0
 69140  1  0  0  0
 69141  1  0  0  0
 70 71  1  0  0  0
 70 72  1  0  0  0
 70142  1  0  0  0
 71143  1  0  0  0
 71144  1  0  0  0
 71145  1  0  0  0
 72146  1  0  0  0
 72147  1  0  0  0
 72148  1  0  0  0
 73 74  1  0  0  0
 73149  1  0  0  0
 74 75  1  0  0  0
 74 77  1  0  0  0
 74150  1  0  0  0
 75 76  1  0  0  0
 75 81  2  0  0  0
 76151  1  0  0  0
 77 78  1  0  0  0
 77152  1  0  0  0
 77153  1  0  0  0
 78 79  2  0  0  0
 78 80  1  0  0  0
 80154  1  0  0  0
 80155  1  0  0  0
M  CHG  1   1   1
M  END
> <s_m_source_file>
../4yoz_ligand.sdf

> <i_m_source_file_index>
1

> <s_epik_input>
Tz1DKFtPSF0pW0NIMl1bQ0BIXShbTkgzK10pQyg9TylbTkhdW0NAQEhdKFtDSDJdW0NIXShbQ0gzXSlbQ0gzXSlDKD1PKVtOSF1bQ0BASF0oW0NIMl1jMVtjSF1bY0hdYyhbT0hdKVtjSF1bY0hdMSlDKD1PKVtOSF1bQ0BASF0oW0NIMl1bU0hdKUMoPU8pW05IXVtDQEBIXShbQ0gyXWMyW2NIXVtjSF1jKFtPSF0pW2NIXVtjSF0yKUMoPU8pW05IXVtDQEBIXShbQ0gyXVtDSDJdQyg9TylbT0hdKUMoPU8pW05IXVtDQEBIXShbQ0gyXVtDSDJdQyg9TylbTkgyXSlDKD1PKVtOSF1bQ0BASF0oW0NIMl1bQ0hdKFtDSDNdKVtDSDNdKUMoPU8pW05IXVtDQEhdKEMoPU8pW09IXSlbQ0gyXUMoPU8pW05IMl0=

> <s_epik_cmdline>
J2VwaWtfYXBwJywgJy1pbWFlJywgJ2xpZ2FuZF9wcm8ubWFlJywgJy1vbWFlJywgJ2xpZ2FuZF9wcmVwLm1hZScsICctbXMnLCAnMScsICctcGgnLCAnNycsICctcGh0JywgJzAuNScsICctbnQn

> <s_epik_pKa_notes>
Molecule size exceeds maximum supported for generating protonation states

$$$$
