4yp1_ligand
                    3D
 Schrodinger Suite 2020-3.
 66 72  0  0  1  0            999 V2000
  -14.2980    4.7810  -23.3840 P   0  0  2  0  0  0
  -13.2580    4.1720  -22.6140 O   0  5  0  0  0  0
  -14.0160    6.1730  -23.4740 O   0  0  0  0  0  0
  -15.5500    4.8330  -22.5950 O   0  0  0  0  0  0
  -16.1410    3.6600  -22.3930 C   0  0  0  0  0  0
  -17.5130    3.9020  -21.9370 C   0  0  1  0  0  0
  -17.4320    5.0150  -21.1960 O   0  0  0  0  0  0
  -18.3170    4.4090  -23.0300 C   0  0  1  0  0  0
  -18.8090    3.4130  -23.8220 O   0  0  0  0  0  0
  -19.3650    4.8150  -22.2580 C   0  0  1  0  0  0
  -19.9560    3.6900  -21.8330 O   0  0  0  0  0  0
  -18.7240    5.4330  -21.1210 C   0  0  2  0  0  0
  -18.5710    6.7540  -21.4700 N   0  0  0  0  0  0
  -17.5060    7.1860  -21.9470 C   0  0  0  0  0  0
  -17.5340    8.3570  -22.1960 N   0  0  0  0  0  0
  -18.6370    8.9190  -21.9210 C   0  0  0  0  0  0
  -19.1450   10.1620  -22.0130 C   0  0  0  0  0  0
  -18.4350   11.1540  -22.5130 N   0  0  0  0  0  0
  -20.3630   10.3990  -21.6050 N   0  0  0  0  0  0
  -21.0850    9.4000  -21.1230 C   0  0  0  0  0  0
  -20.6440    8.1500  -21.0100 N   0  0  0  0  0  0
  -19.4210    7.8580  -21.4080 C   0  0  0  0  0  0
  -18.7710    3.5890  -25.3110 P   0  0  1  0  0  0
  -19.4880    2.5040  -25.8810 O   0  5  0  0  0  0
  -19.5140    4.7740  -25.4990 O   0  0  0  0  0  0
  -17.6070    3.9020  -26.1610 O   0  0  0  0  0  0
  -16.5880    3.0470  -26.0970 C   0  0  0  0  0  0
  -15.4090    3.6890  -26.6600 C   0  0  1  0  0  0
  -15.9630    4.4920  -27.6640 O   0  0  0  0  0  0
  -14.9560    4.7170  -25.7790 C   0  0  1  0  0  0
  -14.1160    4.2650  -24.8020 O   0  0  0  0  0  0
  -14.1770    5.4520  -26.7210 C   0  0  1  0  0  0
  -13.0870    4.7310  -26.9500 O   0  0  0  0  0  0
  -14.9900    5.4230  -27.9230 C   0  0  2  0  0  0
  -15.6910    6.6010  -27.7880 N   0  0  0  0  0  0
  -16.8730    6.6090  -27.4130 C   0  0  0  0  0  0
  -17.3530    7.7030  -27.3460 N   0  0  0  0  0  0
  -16.5670    8.6360  -27.6760 C   0  0  0  0  0  0
  -16.5860    9.9740  -27.7690 C   0  0  0  0  0  0
  -17.6910   10.6510  -27.4440 N   0  0  0  0  0  0
  -15.5560   10.6510  -28.1730 N   0  0  0  0  0  0
  -14.4500   10.0040  -28.4880 C   0  0  0  0  0  0
  -14.3640    8.6800  -28.4030 N   0  0  0  0  0  0
  -15.3770    7.9530  -27.9910 C   0  0  0  0  0  0
  -16.1533    3.0890  -23.3331 H   0  0  0  0  0  0
  -15.5856    3.0963  -21.6289 H   0  0  0  0  0  0
  -17.9270    3.0229  -21.4215 H   0  0  0  0  0  0
  -17.8413    5.1180  -23.7235 H   0  0  0  0  0  0
  -20.1051    5.4304  -22.7905 H   0  0  0  0  0  0
  -20.5079    3.0566  -22.5431 H   0  0  0  0  0  0
  -19.2212    5.2568  -20.1557 H   0  0  0  0  0  0
  -16.6317    6.5589  -22.1214 H   0  0  0  0  0  0
  -17.4074   10.9737  -22.8618 H   0  0  0  0  0  0
  -18.8702   12.1619  -22.5814 H   0  0  0  0  0  0
  -22.1033    9.6146  -20.7988 H   0  0  0  0  0  0
  -16.4022    2.7759  -25.0472 H   0  0  0  0  0  0
  -16.8325    2.1415  -26.6717 H   0  0  0  0  0  0
  -14.6275    2.9630  -26.9287 H   0  0  0  0  0  0
  -15.7468    5.2223  -25.2052 H   0  0  0  0  0  0
  -13.8407    6.4468  -26.3934 H   0  0  0  0  0  0
  -12.3265    4.6187  -26.1632 H   0  0  0  0  0  0
  -14.4737    5.2575  -28.8801 H   0  0  0  0  0  0
  -17.4247    5.7017  -27.1668 H   0  0  0  0  0  0
  -18.5846   10.1114  -27.0972 H   0  0  0  0  0  0
  -17.7072   11.7480  -27.5232 H   0  0  0  0  0  0
  -13.5829   10.5707  -28.8273 H   0  0  0  0  0  0
  1  2  1  0  0  0
  1  3  2  0  0  0
  1  4  1  0  0  0
  1 31  1  0  0  0
  4  5  1  0  0  0
  5  6  1  0  0  0
  5 45  1  0  0  0
  5 46  1  0  0  0
  6  7  1  0  0  0
  6  8  1  0  0  0
  6 47  1  0  0  0
  7 12  1  0  0  0
  8  9  1  0  0  0
  8 10  1  0  0  0
  8 48  1  0  0  0
  9 23  1  0  0  0
 10 11  1  0  0  0
 10 12  1  0  0  0
 10 49  1  0  0  0
 11 50  1  0  0  0
 12 13  1  0  0  0
 12 51  1  0  0  0
 13 14  1  0  0  0
 13 22  1  0  0  0
 14 15  2  0  0  0
 14 52  1  0  0  0
 15 16  1  0  0  0
 16 17  2  0  0  0
 16 22  1  0  0  0
 17 18  1  0  0  0
 17 19  1  0  0  0
 18 53  1  0  0  0
 18 54  1  0  0  0
 19 20  2  0  0  0
 20 21  1  0  0  0
 20 55  1  0  0  0
 21 22  2  0  0  0
 23 24  1  0  0  0
 23 25  2  0  0  0
 23 26  1  0  0  0
 26 27  1  0  0  0
 27 28  1  0  0  0
 27 56  1  0  0  0
 27 57  1  0  0  0
 28 29  1  0  0  0
 28 30  1  0  0  0
 28 58  1  0  0  0
 29 34  1  0  0  0
 30 31  1  0  0  0
 30 32  1  0  0  0
 30 59  1  0  0  0
 32 33  1  0  0  0
 32 34  1  0  0  0
 32 60  1  0  0  0
 33 61  1  0  0  0
 34 35  1  0  0  0
 34 62  1  0  0  0
 35 36  1  0  0  0
 35 44  1  0  0  0
 36 37  2  0  0  0
 36 63  1  0  0  0
 37 38  1  0  0  0
 38 39  2  0  0  0
 38 44  1  0  0  0
 39 40  1  0  0  0
 39 41  1  0  0  0
 40 64  1  0  0  0
 40 65  1  0  0  0
 41 42  2  0  0  0
 42 43  1  0  0  0
 42 66  1  0  0  0
 43 44  2  0  0  0
M  CHG  2   2  -1  24  -1
M  END
> <s_m_source_file>
../4yp1_ligand.sdf

> <i_m_source_file_index>
1

> <s_epik_input>
W05IMl1jMW5bY0hdbmMoYzEyKW4oW2NIXW4yKVtDQEhdKE8zKVtDQEhdKFtPSF0pW0NASF0oT1tQQF0oPU8pKFtPSF0pT1tDSDJdNClbQ0BIXTNbQ0gyXU9bUEBAXSg9TykoW09IXSlPW0NASF0oW0NAQEhdNDUpW0NAQEhdKFtPSF0pW0NAQEhdKE81KW4oW2NIXW42KWMoYzY3KW5bY0hdbmM3W05IMl0=

> <s_epik_cmdline>
J2VwaWtfYXBwJywgJy1pbWFlJywgJ2xpZ2FuZF9wcm8ubWFlJywgJy1vbWFlJywgJ2xpZ2FuZF9wcmVwLm1hZScsICctbXMnLCAnMScsICctcGgnLCAnNycsICctcGh0JywgJzAuNScsICctbnQn

> <r_lp_tautomer_probability>
1

> <r_epik_Ionization_Penalty>
  0.0014

> <r_epik_Ionization_Penalty_Charging>
  0.0004

> <r_epik_Ionization_Penalty_Neutral>
  0.0010

> <r_epik_State_Penalty>
 -0.0000

> <r_epik_Charging_Adjusted_Penalty>
0.000413092635651292

> <i_epik_Tot_Q>
-2

> <i_epik_Tot_abs_Q>
2

> <s_epik_Chemistry_Notes>
This compound contains an acetal/aminal-like group ( X-CH(R)-Y where X, Y are N, S, or O) that may be acid/base labile, releasing an aldehyde.

$$$$
