4ypf_ligand
                    3D
 Schrodinger Suite 2020-3.
 19 20  0  0  1  0            999 V2000
   66.1260    8.2370   18.5500 C   0  0  0  0  0  0
   61.4130    7.7830   19.9370 C   0  0  0  0  0  0
   62.7440    7.1250   18.0580 C   0  0  0  0  0  0
   62.5000    8.3260   20.5560 C   0  0  0  0  0  0
   67.2690    9.3750   20.3340 N   0  0  0  0  0  0
   66.1180    8.8470   19.8080 C   0  0  0  0  0  0
   64.9220    8.8770   20.4990 C   0  0  0  0  0  0
   63.7680    8.3010   19.9330 C   0  0  0  0  0  0
   63.8890    7.6960   18.6590 C   0  0  0  0  0  0
   65.0800    7.6720   17.9770 N   0  0  0  0  0  0
   61.5360    7.1760   18.6930 C   0  0  0  0  0  0
   67.0675    8.2274   18.0009 H   0  0  0  0  0  0
   60.4381    7.8255   20.4227 H   0  0  0  0  0  0
   62.8256    6.6422   17.0842 H   0  0  0  0  0  0
   62.3898    8.7830   21.5394 H   0  0  0  0  0  0
   68.2055    9.3353   19.7583 H   0  0  0  0  0  0
   67.2558    9.8382   21.3316 H   0  0  0  0  0  0
   64.8715    9.3461   21.4816 H   0  0  0  0  0  0
   60.6588    6.7358   18.2189 H   0  0  0  0  0  0
  1  6  2  0  0  0
  1 10  1  0  0  0
  1 12  1  0  0  0
  2  4  2  0  0  0
  2 11  1  0  0  0
  2 13  1  0  0  0
  3  9  1  0  0  0
  3 11  2  0  0  0
  3 14  1  0  0  0
  4  8  1  0  0  0
  4 15  1  0  0  0
  5  6  1  0  0  0
  5 16  1  0  0  0
  5 17  1  0  0  0
  6  7  1  0  0  0
  7  8  2  0  0  0
  7 18  1  0  0  0
  8  9  1  0  0  0
  9 10  2  0  0  0
 11 19  1  0  0  0
M  END
> <s_m_source_file>
../4ypf_ligand.sdf

> <i_m_source_file_index>
1

> <s_epik_input>
W05IMl1jKFtjSF0xKVtjSF1uYyhjMTIpW2NIXVtjSF1bY0hdW2NIXTI=

> <s_epik_cmdline>
J2VwaWtfYXBwJywgJy1pbWFlJywgJ2xpZ2FuZF9wcm8ubWFlJywgJy1vbWFlJywgJ2xpZ2FuZF9wcmVwLm1hZScsICctbXMnLCAnMScsICctcGgnLCAnNycsICctcGh0JywgJzAuNScsICctbnQn

> <r_epik_Ionization_Penalty>
  0.0442

> <r_epik_Ionization_Penalty_Charging>
  0.0000

> <r_epik_Ionization_Penalty_Neutral>
  0.0442

> <r_epik_State_Penalty>
  0.0375

> <r_epik_Charging_Adjusted_Penalty>
0.0374596506349765

> <i_epik_Tot_Q>
0

> <i_epik_Tot_abs_Q>
0

$$$$
