4yps_ligand
                    3D
 Schrodinger Suite 2020-3.
 48 52  0  0  1  0            999 V2000
  -20.4270  -45.9490  -14.8480 C   0  0  0  0  0  0
  -20.0520  -46.8820  -15.8130 C   0  0  0  0  0  0
  -18.9890  -47.7390  -15.5730 C   0  0  0  0  0  0
  -18.1650  -44.3580  -11.0930 C   0  0  0  0  0  0
  -17.4940  -41.6530  -11.3270 C   0  0  0  0  0  0
  -18.0530  -42.1390  -10.1440 C   0  0  0  0  0  0
  -18.3990  -43.4780  -10.0330 C   0  0  0  0  0  0
  -16.5940  -40.5180  -12.9810 C   0  0  0  0  0  0
  -16.7330  -41.8340  -13.3530 C   0  0  0  0  0  0
  -16.3880  -42.4920  -14.6610 C   0  0  0  0  0  0
  -16.2890  -41.6770  -15.7830 C   0  0  0  0  0  0
  -15.9710  -42.2060  -17.0360 C   0  0  0  0  0  0
  -15.7220  -43.5630  -17.1680 C   0  0  0  0  0  0
  -15.8100  -44.3920  -16.0590 C   0  0  0  0  0  0
  -16.1390  -43.8660  -14.8080 C   0  0  0  0  0  0
  -15.4450  -44.0600  -18.3190 C   0  0  0  0  0  0
  -15.2000  -44.4760  -19.3690 N   0  0  0  0  0  0
  -17.2960  -42.4980  -12.3290 N   0  0  0  0  0  0
  -17.6290  -43.8500  -12.2220 N   0  0  0  0  0  0
  -17.0710  -40.4260  -11.7220 N   0  0  0  0  0  0
  -18.5190  -45.7310  -11.0880 N   0  0  0  0  0  0
  -19.5790  -46.2390  -10.2110 C   0  0  0  0  0  0
  -19.4690  -47.7400  -10.0000 C   0  0  0  0  0  0
  -18.1190  -48.1180  -10.1320 O   0  0  0  0  0  0
  -17.7610  -48.0620  -11.4960 C   0  0  0  0  0  0
  -17.9080  -46.6540  -12.0730 C   0  0  1  0  0  0
  -18.6790  -46.7180  -13.3590 C   0  0  0  0  0  0
  -19.7480  -45.8620  -13.6280 C   0  0  0  0  0  0
  -21.4600  -45.1180  -15.1010 F   0  0  0  0  0  0
  -18.3130  -47.6450  -14.3510 C   0  0  0  0  0  0
  -20.5946  -46.9379  -16.7567 H   0  0  0  0  0  0
  -18.6857  -48.4715  -16.3211 H   0  0  0  0  0  0
  -18.2183  -41.4641   -9.3042 H   0  0  0  0  0  0
  -18.8558  -43.8455   -9.1141 H   0  0  0  0  0  0
  -16.1805  -39.7092  -13.5835 H   0  0  0  0  0  0
  -16.4627  -40.6056  -15.6830 H   0  0  0  0  0  0
  -15.9188  -41.5534  -17.9075 H   0  0  0  0  0  0
  -15.6212  -45.4603  -16.1649 H   0  0  0  0  0  0
  -16.2028  -44.5248  -13.9420 H   0  0  0  0  0  0
  -19.5099  -45.7472   -9.2295 H   0  0  0  0  0  0
  -20.5602  -46.0252  -10.6599 H   0  0  0  0  0  0
  -19.8316  -47.9963   -8.9936 H   0  0  0  0  0  0
  -20.0779  -48.2617  -10.7530 H   0  0  0  0  0  0
  -16.7120  -48.3718  -11.6128 H   0  0  0  0  0  0
  -18.4092  -48.7377  -12.0733 H   0  0  0  0  0  0
  -16.9232  -46.2162  -12.2931 H   0  0  0  0  0  0
  -20.0544  -45.1244  -12.8862 H   0  0  0  0  0  0
  -17.4734  -48.3138  -14.1617 H   0  0  0  0  0  0
  1  2  2  0  0  0
  1 28  1  0  0  0
  1 29  1  0  0  0
  2  3  1  0  0  0
  2 31  1  0  0  0
  3 30  2  0  0  0
  3 32  1  0  0  0
  4  7  1  0  0  0
  4 19  2  0  0  0
  4 21  1  0  0  0
  5  6  1  0  0  0
  5 18  1  0  0  0
  5 20  2  0  0  0
  6  7  2  0  0  0
  6 33  1  0  0  0
  7 34  1  0  0  0
  8  9  2  0  0  0
  8 20  1  0  0  0
  8 35  1  0  0  0
  9 10  1  0  0  0
  9 18  1  0  0  0
 10 11  2  0  0  0
 10 15  1  0  0  0
 11 12  1  0  0  0
 11 36  1  0  0  0
 12 13  2  0  0  0
 12 37  1  0  0  0
 13 14  1  0  0  0
 13 16  1  0  0  0
 14 15  2  0  0  0
 14 38  1  0  0  0
 15 39  1  0  0  0
 16 17  3  0  0  0
 18 19  1  0  0  0
 21 22  1  0  0  0
 21 26  1  0  0  0
 22 23  1  0  0  0
 22 40  1  0  0  0
 22 41  1  0  0  0
 23 24  1  0  0  0
 23 42  1  0  0  0
 23 43  1  0  0  0
 24 25  1  0  0  0
 25 26  1  0  0  0
 25 44  1  0  0  0
 25 45  1  0  0  0
 26 27  1  0  0  0
 26 46  1  0  0  0
 27 28  2  0  0  0
 27 30  1  0  0  0
 28 47  1  0  0  0
 30 48  1  0  0  0
M  END
> <s_m_source_file>
../4yps_ligand.sdf

> <i_m_source_file_index>
1

> <s_epik_input>
RmMxW2NIXVtjSF1bY0hdYyhbY0hdMSlbQ0BASF0yW0NIMl1PW0NIMl1bQ0gyXU4yYyhbY0hdW2NIXTMpbm4oYzM0KWMoW2NIXW40KS1jNVtjSF1bY0hdYyhDI04pW2NIXVtjSF01

> <s_epik_cmdline>
J2VwaWtfYXBwJywgJy1pbWFlJywgJ2xpZ2FuZF9wcm8ubWFlJywgJy1vbWFlJywgJ2xpZ2FuZF9wcmVwLm1hZScsICctbXMnLCAnMScsICctcGgnLCAnNycsICctcGh0JywgJzAuNScsICctbnQn

> <r_lp_tautomer_probability>
1

> <r_epik_Ionization_Penalty>
  0.0011

> <r_epik_Ionization_Penalty_Charging>
  0.0000

> <r_epik_Ionization_Penalty_Neutral>
  0.0011

> <r_epik_State_Penalty>
 -0.0000

> <r_epik_Charging_Adjusted_Penalty>
0

> <i_epik_Tot_Q>
0

> <i_epik_Tot_abs_Q>
0

$$$$
