4yrc_ligand
                    3D
 Schrodinger Suite 2020-3.
 20 21  0  0  1  0            999 V2000
   65.7560    8.9690   20.7960 C   0  0  0  0  0  0
   64.4130    8.7790   20.9210 C   0  0  0  0  0  0
   63.6600    8.2340   19.8570 C   0  0  0  0  0  0
   62.2660    8.0120   19.8970 C   0  0  0  0  0  0
   61.6190    7.4510   18.8380 C   0  0  0  0  0  0
   62.3040    7.0910   17.6900 C   0  0  0  0  0  0
   63.6530    7.2980   17.5950 C   0  0  0  0  0  0
   64.3130    6.9380   16.4660 O   0  0  0  0  0  0
   64.3630    7.8820   18.6800 C   0  0  0  0  0  0
   65.7160    8.0810   18.5400 N   0  0  0  0  0  0
   66.3740    8.6190   19.5700 C   0  0  0  0  0  0
   67.6900    8.8530   19.3780 N   0  0  0  0  0  0
   66.3408    9.3801   21.6188 H   0  0  0  0  0  0
   63.9141    9.0502   21.8514 H   0  0  0  0  0  0
   61.7012    8.2929   20.7859 H   0  0  0  0  0  0
   60.5436    7.2826   18.8952 H   0  0  0  0  0  0
   61.7652    6.6399   16.8568 H   0  0  0  0  0  0
   63.7626    6.4864   15.6275 H   0  0  0  0  0  0
   68.2935    9.2948   20.1846 H   0  0  0  0  0  0
   68.1585    8.6018   18.4150 H   0  0  0  0  0  0
  1  2  2  0  0  0
  1 11  1  0  0  0
  1 13  1  0  0  0
  2  3  1  0  0  0
  2 14  1  0  0  0
  3  4  2  0  0  0
  3  9  1  0  0  0
  4  5  1  0  0  0
  4 15  1  0  0  0
  5  6  2  0  0  0
  5 16  1  0  0  0
  6  7  1  0  0  0
  6 17  1  0  0  0
  7  8  1  0  0  0
  7  9  2  0  0  0
  8 18  1  0  0  0
  9 10  1  0  0  0
 10 11  2  0  0  0
 11 12  1  0  0  0
 12 19  1  0  0  0
 12 20  1  0  0  0
M  END
> <s_m_source_file>
../4yrc_ligand.sdf

> <i_m_source_file_index>
1

> <s_epik_input>
W2NIXTFbY0hdYyhbTkgyXSluYyhjMTIpYyhbT0hdKVtjSF1bY0hdW2NIXTI=

> <s_epik_cmdline>
J2VwaWtfYXBwJywgJy1pbWFlJywgJ2xpZ2FuZF9wcm8ubWFlJywgJy1vbWFlJywgJ2xpZ2FuZF9wcmVwLm1hZScsICctbXMnLCAnMScsICctcGgnLCAnNycsICctcGh0JywgJzAuNScsICctbnQn

> <r_lp_tautomer_probability>
1

> <r_epik_Ionization_Penalty>
  0.0649

> <r_epik_Ionization_Penalty_Charging>
  0.0000

> <r_epik_Ionization_Penalty_Neutral>
  0.0649

> <r_epik_State_Penalty>
 -0.0000

> <r_epik_Charging_Adjusted_Penalty>
0

> <i_epik_Tot_Q>
0

> <i_epik_Tot_abs_Q>
0

$$$$
