4yrg_ligand
                    3D
 Schrodinger Suite 2020-3.
 15 15  0  0  1  0            999 V2000
   65.5660    8.5220   18.8420 C   0  0  0  0  0  0
   66.2400    8.8680   20.0040 C   0  0  0  0  0  0
   65.5270    8.9350   21.1890 C   0  0  0  0  0  0
   64.1670    8.6730   21.1960 C   0  0  0  0  0  0
   63.6000    8.3310   19.9840 C   0  0  0  0  0  0
   61.7410    7.9110   19.9330 Br  0  0  0  0  0  0
   64.2440    8.2500   18.8270 N   0  0  0  0  0  0
   66.2550    8.4050   17.5070 C   0  0  0  0  0  0
   67.5420    7.8180   17.6140 O   0  0  0  0  0  0
   67.3085    9.0826   19.9846 H   0  0  0  0  0  0
   66.0364    9.1941   22.1171 H   0  0  0  0  0  0
   63.5756    8.7335   22.1096 H   0  0  0  0  0  0
   65.6498    7.7780   16.8358 H   0  0  0  0  0  0
   66.3731    9.4059   17.0663 H   0  0  0  0  0  0
   68.1567    7.6725   16.7135 H   0  0  0  0  0  0
  1  2  2  0  0  0
  1  7  1  0  0  0
  1  8  1  0  0  0
  2  3  1  0  0  0
  2 10  1  0  0  0
  3  4  2  0  0  0
  3 11  1  0  0  0
  4  5  1  0  0  0
  4 12  1  0  0  0
  5  6  1  0  0  0
  5  7  2  0  0  0
  8  9  1  0  0  0
  8 13  1  0  0  0
  8 14  1  0  0  0
  9 15  1  0  0  0
M  END
> <s_m_source_file>
../4yrg_ligand.sdf

> <i_m_source_file_index>
1

> <s_epik_input>
W09IXVtDSDJdYzFbY0hdW2NIXVtjSF1jKEJyKW4x

> <s_epik_cmdline>
J2VwaWtfYXBwJywgJy1pbWFlJywgJ2xpZ2FuZF9wcm8ubWFlJywgJy1vbWFlJywgJ2xpZ2FuZF9wcmVwLm1hZScsICctbXMnLCAnMScsICctcGgnLCAnNycsICctcGh0JywgJzAuNScsICctbnQn

> <r_lp_tautomer_probability>
1

> <r_epik_Ionization_Penalty>
  0.0000

> <r_epik_Ionization_Penalty_Charging>
  0.0000

> <r_epik_Ionization_Penalty_Neutral>
  0.0000

> <r_epik_State_Penalty>
 -0.0000

> <r_epik_Charging_Adjusted_Penalty>
0

> <i_epik_Tot_Q>
0

> <i_epik_Tot_abs_Q>
0

$$$$
