4yrr_ligand
                    3D
 Schrodinger Suite 2020-3.
 24 25  0  0  1  0            999 V2000
    8.3960   -5.8270   31.4690 O   0  0  0  0  0  0
    8.1190   -5.2470   32.5140 C   0  0  0  0  0  0
    6.8220   -4.5150   32.6980 C   0  0  0  0  0  0
    8.9510   -5.2200   33.5850 N   0  0  0  0  0  0
   10.1360   -5.9670   33.7910 C   0  0  0  0  0  0
   10.7510   -6.6590   32.7730 C   0  0  0  0  0  0
   11.9560   -7.3520   33.0110 C   0  0  0  0  0  0
   12.4920   -7.3250   34.3180 C   0  0  0  0  0  0
   11.8700   -6.6540   35.3380 N   0  0  0  0  0  0
   10.7580   -6.0210   35.0360 C   0  0  0  0  0  0
   12.6840   -8.0080   31.9930 C   0  0  0  0  0  0
   13.8870   -8.5860   32.2630 C   0  0  0  0  0  0
   14.4120   -8.5590   33.5460 C   0  0  0  0  0  0
   13.7350   -7.9500   34.5630 C   0  0  0  0  0  0
    6.2221   -4.5955   31.7795 H   0  0  0  0  0  0
    7.0261   -3.4553   32.9110 H   0  0  0  0  0  0
    6.2672   -4.9577   33.5384 H   0  0  0  0  0  0
    8.7335   -4.5550   34.4338 H   0  0  0  0  0  0
   10.3050   -6.6716   31.7785 H   0  0  0  0  0  0
   10.2704   -5.4803   35.8472 H   0  0  0  0  0  0
   12.2788   -8.0518   30.9821 H   0  0  0  0  0  0
   14.4427   -9.0747   31.4627 H   0  0  0  0  0  0
   15.3752   -9.0289   33.7446 H   0  0  0  0  0  0
   14.1554   -7.9459   35.5687 H   0  0  0  0  0  0
  1  2  2  0  0  0
  2  3  1  0  0  0
  2  4  1  0  0  0
  3 15  1  0  0  0
  3 16  1  0  0  0
  3 17  1  0  0  0
  4  5  1  0  0  0
  4 18  1  0  0  0
  5  6  2  0  0  0
  5 10  1  0  0  0
  6  7  1  0  0  0
  6 19  1  0  0  0
  7  8  2  0  0  0
  7 11  1  0  0  0
  8  9  1  0  0  0
  8 14  1  0  0  0
  9 10  2  0  0  0
 10 20  1  0  0  0
 11 12  2  0  0  0
 11 21  1  0  0  0
 12 13  1  0  0  0
 12 22  1  0  0  0
 13 14  2  0  0  0
 13 23  1  0  0  0
 14 24  1  0  0  0
M  END
> <s_m_source_file>
../4yrr_ligand.sdf

> <i_m_source_file_index>
1

> <s_epik_input>
Tz1DKFtDSDNdKVtOSF1jKFtjSF0xKVtjSF1uYyhjMTIpW2NIXVtjSF1bY0hdW2NIXTI=

> <s_epik_cmdline>
J2VwaWtfYXBwJywgJy1pbWFlJywgJ2xpZ2FuZF9wcm8ubWFlJywgJy1vbWFlJywgJ2xpZ2FuZF9wcmVwLm1hZScsICctbXMnLCAnMScsICctcGgnLCAnNycsICctcGh0JywgJzAuNScsICctbnQn

> <r_lp_tautomer_probability>
1

> <r_epik_Ionization_Penalty>
  0.0017

> <r_epik_Ionization_Penalty_Charging>
  0.0000

> <r_epik_Ionization_Penalty_Neutral>
  0.0017

> <r_epik_State_Penalty>
 -0.0000

> <r_epik_Charging_Adjusted_Penalty>
0

> <i_epik_Tot_Q>
0

> <i_epik_Tot_abs_Q>
0

$$$$
