4yrs_ligand
                    3D
 Schrodinger Suite 2020-3.
 27 28  0  0  1  0            999 V2000
   63.2630    7.6840   20.1340 N   0  0  0  0  0  0
   64.8910    6.8310   18.0820 C   0  0  0  0  0  0
   64.5770    7.9450   20.2040 C   0  0  0  0  0  0
   62.7300    7.0220   19.0940 C   0  0  0  0  0  0
   63.5230    6.5640   18.0300 C   0  0  0  0  0  0
   65.0840    8.6440   21.2970 C   0  0  0  0  0  0
   61.4300    4.8400   15.4290 C   0  0  0  0  0  0
   61.7410    5.5630   16.7370 C   0  0  0  0  0  0
   66.7860    7.8020   19.2400 C   0  0  0  0  0  0
   67.3060    8.5010   20.3300 C   0  0  0  0  0  0
   66.4560    8.9220   21.3590 C   0  0  0  0  0  0
   60.8370    5.8320   17.5140 O   0  0  0  0  0  0
   59.9750    4.3880   15.2790 C   0  0  0  0  0  0
   63.0360    5.8750   16.9510 N   0  0  0  0  0  0
   65.4190    7.5250   19.1720 C   0  0  0  0  0  0
   65.5447    6.4993   17.2753 H   0  0  0  0  0  0
   61.6562    6.8359   19.0757 H   0  0  0  0  0  0
   64.4197    8.9717   22.0966 H   0  0  0  0  0  0
   61.6449    5.5071   14.5812 H   0  0  0  0  0  0
   62.0533    3.9369   15.3521 H   0  0  0  0  0  0
   67.4483    7.4715   18.4399 H   0  0  0  0  0  0
   68.3728    8.7188   20.3799 H   0  0  0  0  0  0
   66.8622    9.4675   22.2108 H   0  0  0  0  0  0
   59.8468    3.8799   14.3119 H   0  0  0  0  0  0
   59.3123    5.2648   15.3232 H   0  0  0  0  0  0
   59.7206    3.6946   16.0941 H   0  0  0  0  0  0
   63.7227    5.5259   16.1658 H   0  0  0  0  0  0
  1  3  2  0  0  0
  1  4  1  0  0  0
  2  5  1  0  0  0
  2 15  2  0  0  0
  2 16  1  0  0  0
  3  6  1  0  0  0
  3 15  1  0  0  0
  4  5  2  0  0  0
  4 17  1  0  0  0
  5 14  1  0  0  0
  6 11  2  0  0  0
  6 18  1  0  0  0
  7  8  1  0  0  0
  7 13  1  0  0  0
  7 19  1  0  0  0
  7 20  1  0  0  0
  8 12  2  0  0  0
  8 14  1  0  0  0
  9 10  2  0  0  0
  9 15  1  0  0  0
  9 21  1  0  0  0
 10 11  1  0  0  0
 10 22  1  0  0  0
 11 23  1  0  0  0
 13 24  1  0  0  0
 13 25  1  0  0  0
 13 26  1  0  0  0
 14 27  1  0  0  0
M  END
> <s_m_source_file>
../4yrs_ligand.sdf

> <i_m_source_file_index>
1

> <s_epik_input>
W0NIM11bQ0gyXUMoPU8pW05IXWMoW2NIXW4xKVtjSF1jKGMxMilbY0hdW2NIXVtjSF1bY0hdMg==

> <s_epik_cmdline>
J2VwaWtfYXBwJywgJy1pbWFlJywgJ2xpZ2FuZF9wcm8ubWFlJywgJy1vbWFlJywgJ2xpZ2FuZF9wcmVwLm1hZScsICctbXMnLCAnMScsICctcGgnLCAnNycsICctcGh0JywgJzAuNScsICctbnQn

> <r_lp_tautomer_probability>
1

> <r_epik_Ionization_Penalty>
  0.0018

> <r_epik_Ionization_Penalty_Charging>
  0.0000

> <r_epik_Ionization_Penalty_Neutral>
  0.0018

> <r_epik_State_Penalty>
 -0.0000

> <r_epik_Charging_Adjusted_Penalty>
0

> <i_epik_Tot_Q>
0

> <i_epik_Tot_abs_Q>
0

$$$$
