4yrt_ligand
                    3D
 Schrodinger Suite 2020-3.
 29 30  0  0  1  0            999 V2000
   62.0530    4.1790   15.3640 O   0  0  0  0  0  0
   61.1850    5.0550   15.3240 C   0  0  0  0  0  0
   59.8640    4.7930   14.6050 C   0  0  0  0  0  0
   59.5070    3.3090   14.5860 C   0  0  0  0  0  0
   61.0910    5.9910   16.2630 N   0  0  0  0  0  0
   62.1520    6.5090   16.9480 C   0  0  0  0  0  0
   61.8800    6.9670   18.2360 C   0  0  0  0  0  0
   62.8780    7.5230   19.0260 C   0  0  0  0  0  0
   62.5510    7.9640   20.3100 C   0  0  0  0  0  0
   63.5330    8.5300   21.1240 C   0  0  0  0  0  0
   64.8440    8.6520   20.6420 C   0  0  0  0  0  0
   65.1590    8.2150   19.3430 C   0  0  0  0  0  0
   66.4340    8.3370   18.8870 O   0  0  0  0  0  0
   64.1780    7.6480   18.5290 C   0  0  0  0  0  0
   64.4680    7.1940   17.2360 C   0  0  0  0  0  0
   63.4570    6.6240   16.4430 C   0  0  0  0  0  0
   59.0545    5.3342   15.1166 H   0  0  0  0  0  0
   59.9375    5.1416   13.5643 H   0  0  0  0  0  0
   58.5513    3.1685   14.0598 H   0  0  0  0  0  0
   59.4147    2.9409   15.6184 H   0  0  0  0  0  0
   60.2978    2.7483   14.0661 H   0  0  0  0  0  0
   60.1070    6.4010   16.5343 H   0  0  0  0  0  0
   60.8668    6.8875   18.6300 H   0  0  0  0  0  0
   61.5291    7.8661   20.6763 H   0  0  0  0  0  0
   63.2827    8.8748   22.1273 H   0  0  0  0  0  0
   65.6190    9.0855   21.2741 H   0  0  0  0  0  0
   67.2073    8.7841   19.5290 H   0  0  0  0  0  0
   65.4810    7.2830   16.8435 H   0  0  0  0  0  0
   63.6859    6.2717   15.4372 H   0  0  0  0  0  0
  1  2  2  0  0  0
  2  3  1  0  0  0
  2  5  1  0  0  0
  3  4  1  0  0  0
  3 17  1  0  0  0
  3 18  1  0  0  0
  4 19  1  0  0  0
  4 20  1  0  0  0
  4 21  1  0  0  0
  5  6  1  0  0  0
  5 22  1  0  0  0
  6  7  2  0  0  0
  6 16  1  0  0  0
  7  8  1  0  0  0
  7 23  1  0  0  0
  8  9  2  0  0  0
  8 14  1  0  0  0
  9 10  1  0  0  0
  9 24  1  0  0  0
 10 11  2  0  0  0
 10 25  1  0  0  0
 11 12  1  0  0  0
 11 26  1  0  0  0
 12 13  1  0  0  0
 12 14  2  0  0  0
 13 27  1  0  0  0
 14 15  1  0  0  0
 15 16  2  0  0  0
 15 28  1  0  0  0
 16 29  1  0  0  0
M  END
> <s_m_source_file>
../4yrt_ligand.sdf

> <i_m_source_file_index>
1

> <s_epik_input>
W0NIM11bQ0gyXUMoPU8pW05IXWMoW2NIXTEpW2NIXVtjSF1jKGMxMiljKFtPSF0pW2NIXVtjSF1bY0hdMg==

> <s_epik_cmdline>
J2VwaWtfYXBwJywgJy1pbWFlJywgJ2xpZ2FuZF9wcm8ubWFlJywgJy1vbWFlJywgJ2xpZ2FuZF9wcmVwLm1hZScsICctbXMnLCAnMScsICctcGgnLCAnNycsICctcGh0JywgJzAuNScsICctbnQn

> <r_lp_tautomer_probability>
1

> <r_epik_Ionization_Penalty>
  0.0045

> <r_epik_Ionization_Penalty_Charging>
  0.0000

> <r_epik_Ionization_Penalty_Neutral>
  0.0045

> <r_epik_State_Penalty>
 -0.0000

> <r_epik_Charging_Adjusted_Penalty>
0

> <i_epik_Tot_Q>
0

> <i_epik_Tot_abs_Q>
0

$$$$
