4ys7_ligand
                    3D
 Schrodinger Suite 2020-3.
 46 50  0  0  1  0            999 V2000
   23.1710  -26.6620   41.0550 C   0  0  0  0  0  0
   22.5230  -25.3200   41.1300 N   0  0  0  0  0  0
   22.3800  -24.5320   42.1940 C   0  0  0  0  0  0
   22.7450  -24.6040   43.5590 C   0  0  0  0  0  0
   22.4120  -23.5350   44.3900 C   0  0  0  0  0  0
   21.7310  -22.4210   43.8740 C   0  0  0  0  0  0
   21.4000  -21.3780   44.6700 N   0  0  0  0  0  0
   20.7270  -20.2960   44.1940 C   0  0  0  0  0  0
   20.3650  -20.1980   42.8410 C   0  0  0  0  0  0
   20.6740  -21.2570   41.9770 C   0  0  0  0  0  0
   21.3570  -22.3660   42.5210 C   0  0  0  0  0  0
   21.7080  -23.4310   41.7260 C   0  0  0  0  0  0
   21.4530  -23.5240   40.4220 N   0  0  0  0  0  0
   21.9790  -24.7160   40.0740 C   0  0  0  0  0  0
   21.9490  -25.3090   38.6880 C   0  0  0  0  0  0
   20.5770  -25.1010   38.1020 C   0  0  0  0  0  0
   20.6180  -25.8160   36.8010 C   0  0  0  0  0  0
   20.0230  -26.9950   36.5820 N   0  0  0  0  0  0
   21.2530  -25.4020   35.6900 N   0  0  0  0  0  0
   20.9750  -26.4140   34.7880 N   0  0  0  0  0  0
   21.3960  -26.4650   33.5040 C   0  0  0  0  0  0
   22.2480  -25.3480   32.9160 C   0  0  0  0  0  0
   20.2320  -27.3610   35.3130 C   0  0  0  0  0  0
   19.8380  -28.4490   34.5620 C   0  0  0  0  0  0
   18.9750  -29.4750   35.2540 C   0  0  0  0  0  0
   20.2430  -28.5230   33.2540 N   0  0  0  0  0  0
   21.0100  -27.5570   32.7170 C   0  0  0  0  0  0
   23.5424  -26.9460   42.0507 H   0  0  0  0  0  0
   24.0120  -26.6240   40.3471 H   0  0  0  0  0  0
   22.4362  -27.4053   40.7120 H   0  0  0  0  0  0
   23.2732  -25.4731   43.9511 H   0  0  0  0  0  0
   22.6818  -23.5644   45.4457 H   0  0  0  0  0  0
   20.4633  -19.4885   44.8770 H   0  0  0  0  0  0
   19.8515  -19.3117   42.4684 H   0  0  0  0  0  0
   20.3970  -21.2255   40.9232 H   0  0  0  0  0  0
   22.7025  -24.8113   38.0599 H   0  0  0  0  0  0
   22.1715  -26.3848   38.7445 H   0  0  0  0  0  0
   19.8209  -25.5241   38.7797 H   0  0  0  0  0  0
   20.3926  -24.0242   37.9734 H   0  0  0  0  0  0
   22.4420  -24.5894   33.6886 H   0  0  0  0  0  0
   21.7143  -24.8847   32.0731 H   0  0  0  0  0  0
   23.2031  -25.7631   32.5617 H   0  0  0  0  0  0
   18.8038  -29.1673   36.2961 H   0  0  0  0  0  0
   19.4820  -30.4511   35.2384 H   0  0  0  0  0  0
   18.0101  -29.5546   34.7320 H   0  0  0  0  0  0
   21.3287  -27.6239   31.6768 H   0  0  0  0  0  0
  1  2  1  0  0  0
  1 28  1  0  0  0
  1 29  1  0  0  0
  1 30  1  0  0  0
  2  3  1  0  0  0
  2 14  1  0  0  0
  3  4  1  0  0  0
  3 12  2  0  0  0
  4  5  2  0  0  0
  4 31  1  0  0  0
  5  6  1  0  0  0
  5 32  1  0  0  0
  6  7  1  0  0  0
  6 11  2  0  0  0
  7  8  2  0  0  0
  8  9  1  0  0  0
  8 33  1  0  0  0
  9 10  2  0  0  0
  9 34  1  0  0  0
 10 11  1  0  0  0
 10 35  1  0  0  0
 11 12  1  0  0  0
 12 13  1  0  0  0
 13 14  2  0  0  0
 14 15  1  0  0  0
 15 16  1  0  0  0
 15 36  1  0  0  0
 15 37  1  0  0  0
 16 17  1  0  0  0
 16 38  1  0  0  0
 16 39  1  0  0  0
 17 18  1  0  0  0
 17 19  2  0  0  0
 18 23  2  0  0  0
 19 20  1  0  0  0
 20 21  1  0  0  0
 20 23  1  0  0  0
 21 22  1  0  0  0
 21 27  2  0  0  0
 22 40  1  0  0  0
 22 41  1  0  0  0
 22 42  1  0  0  0
 23 24  1  0  0  0
 24 25  1  0  0  0
 24 26  2  0  0  0
 25 43  1  0  0  0
 25 44  1  0  0  0
 25 45  1  0  0  0
 26 27  1  0  0  0
 27 46  1  0  0  0
M  END
> <s_m_source_file>
../4ys7_ligand.sdf

> <i_m_source_file_index>
1

> <s_epik_input>
W2NIXTFbY0hdW2NIXW5jKFtjSF1bY0hdMiljMWMoYzIzKW5jKG4zW0NIM10pW0NIMl1bQ0gyXWMobjQpbmMobjQ1KWMoW0NIM10pbltjSF1jNVtDSDNd

> <s_epik_cmdline>
J2VwaWtfYXBwJywgJy1pbWFlJywgJ2xpZ2FuZF9wcm8ubWFlJywgJy1vbWFlJywgJ2xpZ2FuZF9wcmVwLm1hZScsICctbXMnLCAnMScsICctcGgnLCAnNycsICctcGh0JywgJzAuNScsICctbnQn

> <r_epik_Ionization_Penalty>
  0.0184

> <r_epik_Ionization_Penalty_Charging>
  0.0000

> <r_epik_Ionization_Penalty_Neutral>
  0.0184

> <r_epik_State_Penalty>
  0.0146

> <r_epik_Charging_Adjusted_Penalty>
0.014586011510354

> <i_epik_Tot_Q>
0

> <i_epik_Tot_abs_Q>
0

$$$$
