4yt6_ligand
                    3D
 Schrodinger Suite 2020-3.
 66 69  0  0  1  0            999 V2000
    9.3310   34.2950   28.7430 C   0  0  0  0  0  0
    9.8610   33.5230   29.9000 C   0  0  0  0  0  0
    9.1730   34.6640   26.3590 C   0  0  0  0  0  0
    3.6550   34.5520   22.9310 C   0  0  0  0  0  0
    2.8170   33.5790   22.2640 C   0  0  0  0  0  0
    1.6990   36.5460   28.7330 C   0  0  0  0  0  0
    8.0510   36.1470   27.8720 C   0  0  0  0  0  0
    8.5270   35.4130   28.9390 C   0  0  0  0  0  0
    9.4970   39.6360   18.7660 C   0  0  0  0  0  0
   10.0830   38.9680   19.8160 C   0  0  0  0  0  0
    7.8210   36.4780   25.4900 N   0  0  0  0  0  0
    6.9400   37.6340   25.6170 C   0  0  2  0  0  0
    5.4860   37.1780   25.7310 C   0  0  0  0  0  0
    7.0100   38.5320   24.4190 C   0  0  0  0  0  0
    4.7290   37.4820   26.8530 C   0  0  0  0  0  0
    3.4380   37.0190   27.0380 C   0  0  0  0  0  0
    2.8490   36.2590   26.0370 C   0  0  0  0  0  0
    3.5950   35.9150   24.9180 C   0  0  0  0  0  0
    4.8930   36.3770   24.7570 C   0  0  0  0  0  0
    8.3560   35.7740   26.5700 C   0  0  0  0  0  0
    9.6560   33.9360   27.4350 C   0  0  0  0  0  0
    2.8650   37.2930   28.2620 O   0  0  0  0  0  0
    9.7240   34.0510   31.1370 N   0  0  0  0  0  0
   10.3550   32.3570   29.6630 N   0  3  0  0  0  0
    5.2610   38.3100   27.7730 F   0  0  0  0  0  0
    2.9680   34.9970   24.1040 O   0  0  0  0  0  0
    1.7530   36.4150   30.2240 C   0  0  0  0  0  0
    0.5180   37.3360   28.2730 C   0  0  0  0  0  0
    6.1740   39.5780   24.2330 N   0  0  0  0  0  0
    6.4840   40.1310   23.0270 C   0  0  0  0  0  0
    7.5390   39.4170   22.5360 C   0  0  0  0  0  0
    7.8540   38.4010   23.4120 N   0  0  0  0  0  0
    8.2040   39.4810   21.2260 C   0  0  0  0  0  0
    9.4190   38.8390   21.0210 C   0  0  0  0  0  0
    8.2540   40.2110   18.9280 C   0  0  0  0  0  0
    7.6140   40.1530   20.1570 C   0  0  0  0  0  0
    9.4331   34.3673   25.3429 H   0  0  0  0  0  0
    4.6121   34.0846   23.2057 H   0  0  0  0  0  0
    3.8415   35.3998   22.2554 H   0  0  0  0  0  0
    3.3236   33.2198   21.3561 H   0  0  0  0  0  0
    1.8599   34.0464   21.9893 H   0  0  0  0  0  0
    2.6305   32.7312   22.9396 H   0  0  0  0  0  0
    1.6707   35.5244   28.3261 H   0  0  0  0  0  0
    7.4315   37.0254   28.0525 H   0  0  0  0  0  0
    8.2683   35.7147   29.9539 H   0  0  0  0  0  0
   10.0134   39.7106   17.8090 H   0  0  0  0  0  0
   11.0774   38.5377   19.6968 H   0  0  0  0  0  0
    8.1036   36.1088   24.4931 H   0  0  0  0  0  0
    1.8120   35.9358   26.1286 H   0  0  0  0  0  0
    5.4539   36.1112   23.8610 H   0  0  0  0  0  0
   10.2973   33.0728   27.2569 H   0  0  0  0  0  0
    9.2925   35.0551   31.2617 H   0  0  0  0  0  0
   10.0440   33.4765   32.0188 H   0  0  0  0  0  0
   10.4352   31.9937   28.6278 H   0  0  0  0  0  0
    2.6380   35.8269   30.5086 H   0  0  0  0  0  0
    0.8449   35.9069   30.5805 H   0  0  0  0  0  0
    1.8158   37.4150   30.6779 H   0  0  0  0  0  0
    0.5260   37.4017   27.1750 H   0  0  0  0  0  0
    0.5646   38.3481   28.7013 H   0  0  0  0  0  0
   -0.4064   36.8400   28.6039 H   0  0  0  0  0  0
    5.9881   40.9758   22.5490 H   0  0  0  0  0  0
    9.8509   38.2301   21.8152 H   0  0  0  0  0  0
    7.7733   40.7123   18.0879 H   0  0  0  0  0  0
    6.6452   40.6352   20.2875 H   0  0  0  0  0  0
    5.4251   39.8265   24.9994 H   0  0  0  0  0  0
   10.6966   31.7248   30.4958 H   0  0  0  0  0  0
  1  2  1  0  0  0
  1  8  2  0  0  0
  1 21  1  0  0  0
  2 23  1  0  0  0
  2 24  2  0  0  0
  3 20  1  0  0  0
  3 21  2  0  0  0
  3 37  1  0  0  0
  4  5  1  0  0  0
  4 26  1  0  0  0
  4 38  1  0  0  0
  4 39  1  0  0  0
  5 40  1  0  0  0
  5 41  1  0  0  0
  5 42  1  0  0  0
  6 22  1  0  0  0
  6 27  1  0  0  0
  6 28  1  0  0  0
  6 43  1  0  0  0
  7  8  1  0  0  0
  7 20  2  0  0  0
  7 44  1  0  0  0
  8 45  1  0  0  0
  9 10  2  0  0  0
  9 35  1  0  0  0
  9 46  1  0  0  0
 10 34  1  0  0  0
 10 47  1  0  0  0
 11 12  1  0  0  0
 11 20  1  0  0  0
 11 48  1  0  0  0
 12 13  1  0  0  0
 12 14  2  0  0  0
 13 15  2  0  0  0
 13 19  1  0  0  0
 14 29  1  0  0  0
 14 32  1  0  0  0
 15 16  1  0  0  0
 15 25  1  0  0  0
 16 17  2  0  0  0
 16 22  1  0  0  0
 17 18  1  0  0  0
 17 49  1  0  0  0
 18 19  2  0  0  0
 18 26  1  0  0  0
 19 50  1  0  0  0
 21 51  1  0  0  0
 23 52  1  0  0  0
 23 53  1  0  0  0
 24 54  1  0  0  0
 24 66  1  0  0  0
 27 55  1  0  0  0
 27 56  1  0  0  0
 27 57  1  0  0  0
 28 58  1  0  0  0
 28 59  1  0  0  0
 28 60  1  0  0  0
 29 30  1  0  0  0
 29 65  1  0  0  0
 30 31  1  0  0  0
 30 61  1  0  0  0
 31 32  2  0  0  0
 31 33  1  0  0  0
 33 34  2  0  0  0
 33 36  1  0  0  0
 34 62  1  0  0  0
 35 36  2  0  0  0
 35 63  1  0  0  0
 36 64  1  0  0  0
M  CHG  1  24   1
M  END
> <s_m_source_file>
../4yt6_ligand.sdf

> <i_m_source_file_index>
1

> <s_epik_input>
W0NIM11bQ0gyXU9jKFtjSF0xKVtjSF1jKE9bQ0hdKFtDSDNdKVtDSDNdKWMoRiljMVtDQEBIXShbTkhdYyhbY0hdW2NIXTIpW2NIXVtjSF1jMi9DKFtOSDJdKT1OL1tIXSlDMz1OW0NIMl1DKD1OMyljNFtjSF1bY0hdW2NIXVtjSF1bY0hdNA==

> <s_epik_cmdline>
J2VwaWtfYXBwJywgJy1pbWFlJywgJ2xpZ2FuZF9wcm8ubWFlJywgJy1vbWFlJywgJ2xpZ2FuZF9wcmVwLm1hZScsICctbXMnLCAnMScsICctcGgnLCAnNycsICctcGh0JywgJzAuNScsICctbnQn

> <r_lp_tautomer_probability>
1

> <r_epik_Ionization_Penalty>
  0.0003

> <r_epik_Ionization_Penalty_Charging>
  0.0003

> <r_epik_Ionization_Penalty_Neutral>
  0.0000

> <r_epik_State_Penalty>
 -0.0000

> <r_epik_Charging_Adjusted_Penalty>
0.0003115973184836

> <i_epik_Tot_Q>
1

> <i_epik_Tot_abs_Q>
1

> <s_epik_Chemistry_Notes>
This compound has an imine and may undergo hydrolysis.

$$$$
