4yt7_ligand
                    3D
 Schrodinger Suite 2020-3.
 72 75  0  0  1  0            999 V2000
   10.2940   32.5880   27.3060 C   0  0  0  0  0  0
    4.2150   33.1580   23.3380 C   0  0  0  0  0  0
   10.7370   32.2510   29.7470 C   0  0  0  0  0  0
    8.9260   34.9450   27.7910 C   0  0  0  0  0  0
    9.4600   34.2230   28.8410 C   0  0  0  0  0  0
    3.3540   32.1730   22.7550 C   0  0  0  0  0  0
    7.8610   38.0580   22.4140 C   0  0  0  0  0  0
    7.2280   39.0020   23.1720 C   0  0  0  0  0  0
    9.0520   34.4830   26.4850 C   0  0  0  0  0  0
    9.7520   33.3040   26.2500 C   0  0  0  0  0  0
    9.5410   38.1080   18.5000 C   0  0  0  0  0  0
    2.8790   35.3180   30.6680 C   0  0  0  0  0  0
   10.2630   37.6300   19.5760 C   0  0  0  0  0  0
    5.5610   36.1880   27.0630 C   0  0  0  0  0  0
    6.1910   35.8840   25.8650 C   0  0  0  0  0  0
    5.5080   35.0750   24.9660 C   0  0  0  0  0  0
    4.2360   34.6160   25.2650 C   0  0  0  0  0  0
    3.6040   34.9710   26.4470 C   0  0  0  0  0  0
    4.2780   35.7590   27.3690 C   0  0  0  0  0  0
    3.5630   33.6890   24.5100 O   0  0  0  0  0  0
    7.6210   36.3370   25.5860 C   0  0  1  0  0  0
    8.4670   35.1630   25.4130 N   0  0  0  0  0  0
    7.5530   37.1980   24.3620 C   0  0  0  0  0  0
   10.1710   33.0420   28.6180 C   0  0  0  0  0  0
    8.0500   36.9250   23.1730 N   0  3  0  0  0  0
    7.0250   38.4410   24.3880 N   0  3  0  0  0  0
    6.2420   36.9150   27.9720 F   0  0  0  0  0  0
    3.7420   36.1740   28.5760 O   0  0  0  0  0  0
    2.6440   35.4280   29.2060 C   0  0  0  0  0  0
    1.4040   36.1740   28.8970 C   0  0  0  0  0  0
    8.4150   38.0960   21.0470 C   0  0  0  0  0  0
   11.1990   31.0860   29.4950 N   0  3  0  0  0  0
   10.6590   32.7620   30.9930 N   0  0  0  0  0  0
    9.7080   37.6090   20.8420 C   0  0  0  0  0  0
    8.2570   38.5950   18.6790 C   0  0  0  0  0  0
    7.6800   38.5950   19.9510 C   0  0  0  0  0  0
    6.2750   39.0950   20.0820 C   0  0  0  0  0  0
    5.3150   38.3630   19.5340 N   0  0  0  0  0  0
    6.0460   40.1630   20.6930 O   0  0  0  0  0  0
   10.8240   31.6565   27.1074 H   0  0  0  0  0  0
    5.1712   32.6907   23.6162 H   0  0  0  0  0  0
    4.3980   33.9621   22.6100 H   0  0  0  0  0  0
    8.4034   35.8813   27.9870 H   0  0  0  0  0  0
    9.3239   34.5815   29.8613 H   0  0  0  0  0  0
    3.8319   31.7533   21.8575 H   0  0  0  0  0  0
    2.3978   32.6403   22.4768 H   0  0  0  0  0  0
    3.1711   31.3689   23.4830 H   0  0  0  0  0  0
    6.9925   39.9862   22.7409 H   0  0  0  0  0  0
    9.8750   32.9411   25.2296 H   0  0  0  0  0  0
    9.9843   38.1019   17.5042 H   0  0  0  0  0  0
    3.8082   34.7578   30.8489 H   0  0  0  0  0  0
    2.0354   34.7898   31.1362 H   0  0  0  0  0  0
    2.9675   36.3249   31.1019 H   0  0  0  0  0  0
   11.2794   37.2661   19.4257 H   0  0  0  0  0  0
    5.9754   34.8000   24.0205 H   0  0  0  0  0  0
    2.5874   34.6343   26.6500 H   0  0  0  0  0  0
    8.0979   36.8973   26.4037 H   0  0  0  0  0  0
    8.6695   34.7749   24.4039 H   0  0  0  0  0  0
    2.5749   34.4012   28.8174 H   0  0  0  0  0  0
    0.5435   35.6573   29.3471 H   0  0  0  0  0  0
    1.2703   36.2274   27.8065 H   0  0  0  0  0  0
    1.4765   37.1918   29.3078 H   0  0  0  0  0  0
   11.2380   30.7223   28.4576 H   0  0  0  0  0  0
   10.2517   33.7718   31.1488 H   0  0  0  0  0  0
   11.0027   32.1688   31.8532 H   0  0  0  0  0  0
   10.2798   37.2121   21.6808 H   0  0  0  0  0  0
    7.6963   38.9786   17.8266 H   0  0  0  0  0  0
    5.5670   37.4310   19.0068 H   0  0  0  0  0  0
    4.2665   38.6877   19.6065 H   0  0  0  0  0  0
    8.4964   35.9390   22.9767 H   0  0  0  0  0  0
   11.5576   30.4472   30.3156 H   0  0  0  0  0  0
    6.5058   39.0073   25.1752 H   0  0  0  0  0  0
  1 10  2  0  0  0
  1 24  1  0  0  0
  1 40  1  0  0  0
  2  6  1  0  0  0
  2 20  1  0  0  0
  2 41  1  0  0  0
  2 42  1  0  0  0
  3 24  1  0  0  0
  3 32  2  0  0  0
  3 33  1  0  0  0
  4  5  1  0  0  0
  4  9  2  0  0  0
  4 43  1  0  0  0
  5 24  2  0  0  0
  5 44  1  0  0  0
  6 45  1  0  0  0
  6 46  1  0  0  0
  6 47  1  0  0  0
  7  8  2  0  0  0
  7 25  1  0  0  0
  7 31  1  0  0  0
  8 26  1  0  0  0
  8 48  1  0  0  0
  9 10  1  0  0  0
  9 22  1  0  0  0
 10 49  1  0  0  0
 11 13  2  0  0  0
 11 35  1  0  0  0
 11 50  1  0  0  0
 12 29  1  0  0  0
 12 51  1  0  0  0
 12 52  1  0  0  0
 12 53  1  0  0  0
 13 34  1  0  0  0
 13 54  1  0  0  0
 14 15  2  0  0  0
 14 19  1  0  0  0
 14 27  1  0  0  0
 15 16  1  0  0  0
 15 21  1  0  0  0
 16 17  2  0  0  0
 16 55  1  0  0  0
 17 18  1  0  0  0
 17 20  1  0  0  0
 18 19  2  0  0  0
 18 56  1  0  0  0
 19 28  1  0  0  0
 21 22  1  0  0  0
 21 23  1  0  0  0
 21 57  1  0  0  0
 22 58  1  0  0  0
 23 25  2  0  0  0
 23 26  1  0  0  0
 25 70  1  0  0  0
 26 72  1  0  0  0
 28 29  1  0  0  0
 29 30  1  0  0  0
 29 59  1  0  0  0
 30 60  1  0  0  0
 30 61  1  0  0  0
 30 62  1  0  0  0
 31 34  2  0  0  0
 31 36  1  0  0  0
 32 63  1  0  0  0
 32 71  1  0  0  0
 33 64  1  0  0  0
 33 65  1  0  0  0
 34 66  1  0  0  0
 35 36  2  0  0  0
 35 67  1  0  0  0
 36 37  1  0  0  0
 37 38  1  0  0  0
 37 39  2  0  0  0
 38 68  1  0  0  0
 38 69  1  0  0  0
M  CHG  3  25   1  26   1  32   1
M  END
> <s_m_source_file>
../4yt7_ligand.sdf

> <i_m_source_file_index>
1

> <s_epik_input>
W0NIM11bQ0hdKFtDSDNdKU9jMVtjSF1jKE9bQ0gyXVtDSDNdKVtjSF1jKGMxRilbQ0BASF0oW05IXWMyW2NIXVtjSF1jKFtjSF1bY0hdMikvQyg9TlxbSF0pW05IMl0pYyhuMylbbkhdW2NIXWMzLWM0W2NIXVtjSF1bY0hdW2NIXWM0Qyg9TylbTkgyXQ==

> <s_epik_cmdline>
J2VwaWtfYXBwJywgJy1pbWFlJywgJ2xpZ2FuZF9wcm8ubWFlJywgJy1vbWFlJywgJ2xpZ2FuZF9wcmVwLm1hZScsICctbXMnLCAnMScsICctcGgnLCAnNycsICctcGh0JywgJzAuNScsICctbnQn

> <r_lp_tautomer_probability>
1

> <r_epik_Ionization_Penalty>
 19.4417

> <r_epik_Ionization_Penalty_Charging>
 19.4417

> <r_epik_Ionization_Penalty_Neutral>
  0.0000

> <r_epik_State_Penalty>
 -0.0000

> <r_epik_Charging_Adjusted_Penalty>
19.4416769948456

> <i_epik_Tot_Q>
3

> <i_epik_Tot_abs_Q>
3

> <s_epik_Chemistry_Notes>
This compound has an imine and may undergo hydrolysis.

$$$$
