4ytf_ligand
                    3D
 Schrodinger Suite 2020-3.
 41 43  0  0  1  0            999 V2000
   14.6480   14.8140    5.7080 C   0  0  2  0  0  0
   17.3790   10.5010    5.1220 N   0  0  0  0  0  0
   15.8310   15.8110    2.1470 C   0  0  0  0  0  0
   15.7620   14.6950    1.1490 C   0  0  0  0  0  0
   16.4070   13.0350    5.7570 C   0  0  0  0  0  0
   17.7090   12.6140    6.2210 C   0  0  0  0  0  0
   16.1400   10.9440    4.6870 C   0  0  0  0  0  0
   15.3630   10.0350    3.8590 C   0  0  0  0  0  0
   15.7450    8.7490    3.5150 C   0  0  0  0  0  0
   11.8950    9.9320    1.4750 C   0  0  0  0  0  0
   18.4610   13.3900    6.9390 F   0  0  0  0  0  0
   18.1460   11.3330    5.8820 C   0  0  0  0  0  0
   15.6040   12.1790    4.9770 N   0  0  0  0  0  0
   15.9570   14.2820    6.0950 N   0  0  0  0  0  0
   14.6050   15.2330    4.2280 C   0  0  0  0  0  0
   15.8240   15.3730    3.5370 N   0  0  0  0  0  0
   16.7860   13.8670    1.2580 F   0  0  0  0  0  0
   15.7820   15.1370   -0.1050 F   0  0  0  0  0  0
   14.6450   13.9700    1.2680 F   0  0  0  0  0  0
   13.5010   15.3920    3.6510 O   0  0  0  0  0  0
   14.3450   16.0500    6.5540 C   0  0  0  0  0  0
   14.1370   10.2880    3.1910 C   0  0  0  0  0  0
   13.2030   11.3740    3.0860 C   0  0  0  0  0  0
   12.1050   11.1610    2.2230 C   0  0  0  0  0  0
   10.9610   12.4130    1.9810 Cl  0  0  0  0  0  0
   12.7750    8.8700    1.5670 N   0  0  0  0  0  0
   13.8430    9.0740    2.4120 C   0  0  0  0  0  0
   14.8270    8.1700    2.6500 N   0  3  0  0  0  0
   13.9417   13.9904    5.8892 H   0  0  0  0  0  0
   16.7583   16.3827    1.9942 H   0  0  0  0  0  0
   14.9645   16.4756    2.0145 H   0  0  0  0  0  0
   16.6478    8.2564    3.8761 H   0  0  0  0  0  0
   11.0232    9.8461    0.8265 H   0  0  0  0  0  0
   19.1200   10.9908    6.2318 H   0  0  0  0  0  0
   16.6451   14.8964    6.6942 H   0  0  0  0  0  0
   16.7722   15.1510    4.0485 H   0  0  0  0  0  0
   14.3690   15.7796    7.6200 H   0  0  0  0  0  0
   13.3476   16.4355    6.2959 H   0  0  0  0  0  0
   15.1003   16.8246    6.3551 H   0  0  0  0  0  0
   13.3333   12.3048    3.6380 H   0  0  0  0  0  0
   14.9837    7.1429    2.2887 H   0  0  0  0  0  0
  1 14  1  0  0  0
  1 15  1  0  0  0
  1 21  1  0  0  0
  1 29  1  0  0  0
  2  7  2  0  0  0
  2 12  1  0  0  0
  3  4  1  0  0  0
  3 16  1  0  0  0
  3 30  1  0  0  0
  3 31  1  0  0  0
  4 17  1  0  0  0
  4 18  1  0  0  0
  4 19  1  0  0  0
  5  6  1  0  0  0
  5 13  2  0  0  0
  5 14  1  0  0  0
  6 11  1  0  0  0
  6 12  2  0  0  0
  7  8  1  0  0  0
  7 13  1  0  0  0
  8  9  2  0  0  0
  8 22  1  0  0  0
  9 28  1  0  0  0
  9 32  1  0  0  0
 10 24  2  0  0  0
 10 26  1  0  0  0
 10 33  1  0  0  0
 12 34  1  0  0  0
 14 35  1  0  0  0
 15 16  1  0  0  0
 15 20  2  0  0  0
 16 36  1  0  0  0
 21 37  1  0  0  0
 21 38  1  0  0  0
 21 39  1  0  0  0
 22 23  2  0  0  0
 22 27  1  0  0  0
 23 24  1  0  0  0
 23 40  1  0  0  0
 24 25  1  0  0  0
 26 27  1  0  0  0
 27 28  2  0  0  0
 28 41  1  0  0  0
M  CHG  1  28   1
M  END
> <s_m_source_file>
../4ytf_ligand.sdf

> <i_m_source_file_index>
1

> <s_epik_input>
RkMoRikoRilbQ0gyXVtOSF1DKD1PKVtDQEhdKFtDSDNdKVtOSF1jMWMoRilbY0hdbmMobjEpLWMyW2NIXW5jKGMyMylbbkhdW2NIXWMoQ2wpW2NIXTM=

> <s_epik_cmdline>
J2VwaWtfYXBwJywgJy1pbWFlJywgJ2xpZ2FuZF9wcm8ubWFlJywgJy1vbWFlJywgJ2xpZ2FuZF9wcmVwLm1hZScsICctbXMnLCAnMScsICctcGgnLCAnNycsICctcGh0JywgJzAuNScsICctbnQn

> <r_lp_tautomer_probability>
1

> <r_epik_Ionization_Penalty>
  0.0000

> <r_epik_Ionization_Penalty_Charging>
  0.0000

> <r_epik_Ionization_Penalty_Neutral>
  0.0000

> <r_epik_State_Penalty>
 -0.0000

> <r_epik_Charging_Adjusted_Penalty>
1.89954292544392e-06

> <i_epik_Tot_Q>
1

> <i_epik_Tot_abs_Q>
1

$$$$
