4yth_ligand
                    3D
 Schrodinger Suite 2020-3.
 43 45  0  0  1  0            999 V2000
   12.2630   17.4240    4.4860 F   0  0  0  0  0  0
   12.2150   16.1730    3.9750 C   0  0  0  0  0  0
   11.2470   15.8040    3.0160 C   0  0  0  0  0  0
   11.1950   14.5210    2.5010 N   0  0  0  0  0  0
   12.1400   13.5850    2.9720 C   0  0  0  0  0  0
   13.1110   13.8730    3.8840 N   0  0  0  0  0  0
   13.1670   15.1590    4.4000 C   0  0  0  0  0  0
   14.1420   15.4820    5.3580 N   0  0  0  0  0  0
   15.2450   14.6020    5.8880 C   0  0  0  0  0  0
   16.1970   15.4930    6.6930 C   0  0  0  0  0  0
   16.0330   14.0030    4.6880 C   0  0  0  0  0  0
   16.2360   14.8610    3.6290 N   0  0  0  0  0  0
   16.9270   14.4800    2.4150 C   0  0  0  0  0  0
   16.0000   14.5380    1.2400 C   0  0  0  0  0  0
   15.5400   15.7520    1.0170 F   0  0  0  0  0  0
   14.9160   13.7750    1.4070 F   0  0  0  0  0  0
   16.5990   14.1450    0.1310 F   0  0  0  0  0  0
   16.4160   12.8420    4.6400 O   0  0  0  0  0  0
   14.6540   13.5290    6.8080 C   0  0  0  0  0  0
   12.0530   12.2090    2.5170 C   0  0  0  0  0  0
   12.9220   11.0910    2.8210 C   0  0  0  0  0  0
   14.1520   10.8700    3.5450 C   0  0  0  0  0  0
   14.6810    9.5900    3.5290 C   0  0  0  0  0  0
   16.1070    9.2480    4.3880 Cl  0  0  0  0  0  0
   14.0550    8.4970    2.8380 C   0  0  0  0  0  0
   12.8990    8.6670    2.1500 N   0  0  0  0  0  0
   12.3700    9.9510    2.1420 C   0  0  0  0  0  0
   11.2300   10.3700    1.4210 N   0  0  0  0  0  0
   11.0450   11.7360    1.6640 C   0  0  0  0  0  0
   10.5252   16.5457    2.6740 H   0  0  0  0  0  0
   14.0353   16.5127    5.7272 H   0  0  0  0  0  0
   16.6225   16.2642    6.0341 H   0  0  0  0  0  0
   17.0086   14.8791    7.1107 H   0  0  0  0  0  0
   15.6433   15.9752    7.5120 H   0  0  0  0  0  0
   15.8416   15.8818    3.7401 H   0  0  0  0  0  0
   17.7673   15.1680    2.2401 H   0  0  0  0  0  0
   17.3088   13.4535    2.5171 H   0  0  0  0  0  0
   14.1112   14.0124    7.6337 H   0  0  0  0  0  0
   15.4654   12.9086    7.2162 H   0  0  0  0  0  0
   13.9610   12.8957    6.2347 H   0  0  0  0  0  0
   14.6672   11.6712    4.0952 H   0  0  0  0  0  0
   14.5188    7.5110    2.8674 H   0  0  0  0  0  0
   10.1990   12.2670    1.2033 H   0  0  0  0  0  0
  1  2  1  0  0  0
  2  3  2  0  0  0
  2  7  1  0  0  0
  3  4  1  0  0  0
  3 30  1  0  0  0
  4  5  2  0  0  0
  5  6  1  0  0  0
  5 20  1  0  0  0
  6  7  2  0  0  0
  7  8  1  0  0  0
  8  9  1  0  0  0
  8 31  1  0  0  0
  9 10  1  0  0  0
  9 11  1  0  0  0
  9 19  1  0  0  0
 10 32  1  0  0  0
 10 33  1  0  0  0
 10 34  1  0  0  0
 11 12  1  0  0  0
 11 18  2  0  0  0
 12 13  1  0  0  0
 12 35  1  0  0  0
 13 14  1  0  0  0
 13 36  1  0  0  0
 13 37  1  0  0  0
 14 15  1  0  0  0
 14 16  1  0  0  0
 14 17  1  0  0  0
 19 38  1  0  0  0
 19 39  1  0  0  0
 19 40  1  0  0  0
 20 21  2  0  0  0
 20 29  1  0  0  0
 21 22  1  0  0  0
 21 27  1  0  0  0
 22 23  2  0  0  0
 22 41  1  0  0  0
 23 24  1  0  0  0
 23 25  1  0  0  0
 25 26  1  0  0  0
 25 42  1  0  0  0
 26 27  2  0  0  0
 27 28  1  0  0  0
 28 29  2  0  0  0
 29 43  1  0  0  0
M  END
> <s_m_source_file>
../4yth_ligand.sdf

> <i_m_source_file_index>
1

> <s_epik_input>
W0NIXTE9QyhDbClbQ0gyXU49QyhDMTIpTj1bQ0hdQz0yYyhuW2NIXWMzRiluYzNbTkhdQyhbQ0gzXSkoW0NIM10pQyg9TylbTkhdW0NIMl1DKEYpKEYpRg==

> <s_epik_cmdline>
J2VwaWtfYXBwJywgJy1pbWFlJywgJ2xpZ2FuZF9wcm8ubWFlJywgJy1vbWFlJywgJ2xpZ2FuZF9wcmVwLm1hZScsICctbXMnLCAnMScsICctcGgnLCAnNycsICctcGh0JywgJzAuNScsICctbnQn

> <r_lp_tautomer_probability>
1

> <r_epik_Ionization_Penalty>
  0.0000

> <r_epik_Ionization_Penalty_Charging>
  0.0000

> <r_epik_Ionization_Penalty_Neutral>
  0.0000

> <r_epik_State_Penalty>
 -0.0000

> <r_epik_Charging_Adjusted_Penalty>
0

> <i_epik_Tot_Q>
0

> <i_epik_Tot_abs_Q>
0

> <s_epik_Chemistry_Notes>
This compound has an imine and may undergo hydrolysis.

$$$$
