4yti_ligand
                    3D
 Schrodinger Suite 2020-3.
 48 50  0  0  1  0            999 V2000
   13.9890   14.2990    5.1700 C   0  0  0  0  0  0
   15.3830   14.8910    5.4370 C   0  0  2  0  0  0
   15.4120   15.6390    6.7570 C   0  0  0  0  0  0
   15.7810   15.8880    4.3290 C   0  0  0  0  0  0
   16.8130   14.9170    2.2730 C   0  0  0  0  0  0
   15.7960   14.9090    1.1740 C   0  0  0  0  0  0
   16.5740   12.5180    4.9190 C   0  0  0  0  0  0
   17.8310   11.9080    5.1510 C   0  0  0  0  0  0
   18.0020   10.5950    4.7410 C   0  0  0  0  0  0
   15.7680   10.6110    3.9770 C   0  0  0  0  0  0
   14.6580    9.9230    3.3070 C   0  0  0  0  0  0
   14.7380    8.6070    2.9250 C   0  0  0  0  0  0
   12.7680    9.3290    2.1200 C   0  0  0  0  0  0
   16.2710   14.4300    0.1120 F   0  0  0  0  0  0
   15.3600   16.0570    0.8780 F   0  0  0  0  0  0
   14.7790   14.2390    1.4520 F   0  0  0  0  0  0
   16.8350   15.4880    3.6210 N   0  0  0  0  0  0
   15.1250   16.9110    4.1010 O   0  0  0  0  0  0
   13.0960   15.0560    4.1890 C   0  0  0  0  0  0
   16.3590   13.7910    5.4750 N   0  0  0  0  0  0
   15.5510   11.8890    4.3170 N   0  0  0  0  0  0
   17.0500    9.8600    4.1680 N   0  3  0  0  0  0
   13.3350   10.3990    2.8280 C   0  0  0  0  0  0
   12.6670   11.6200    2.7450 C   0  0  0  0  0  0
   11.5190   11.7300    1.9600 C   0  0  0  0  0  0
   11.0600   10.6240    1.2850 C   0  0  0  0  0  0
   11.6470    9.4060    1.3500 N   0  0  0  0  0  0
   13.6000    8.2440    2.2170 N   0  3  0  0  0  0
   14.0943   13.2855    4.7555 H   0  0  0  0  0  0
   13.4236   14.2528    6.1124 H   0  0  0  0  0  0
   14.6821   16.4615    6.7284 H   0  0  0  0  0  0
   16.4192   16.0482    6.9245 H   0  0  0  0  0  0
   15.1556   14.9495    7.5748 H   0  0  0  0  0  0
   17.0370   13.8826    2.5728 H   0  0  0  0  0  0
   17.7334   15.4032    1.9173 H   0  0  0  0  0  0
   18.6392   12.4544    5.6371 H   0  0  0  0  0  0
   18.9775   10.1345    4.8974 H   0  0  0  0  0  0
   15.6222    8.0096    3.1920 H   0  0  0  0  0  0
   17.7922   15.6214    4.1463 H   0  0  0  0  0  0
   12.1347   14.5310    4.0881 H   0  0  0  0  0  0
   13.5905   15.1074    3.2077 H   0  0  0  0  0  0
   12.9198   16.0747    4.5647 H   0  0  0  0  0  0
   17.2552   13.8725    6.1076 H   0  0  0  0  0  0
   13.0405   12.4858    3.2917 H   0  0  0  0  0  0
   10.9925   12.6813    1.8829 H   0  0  0  0  0  0
   10.1726   10.7341    0.6617 H   0  0  0  0  0  0
   13.4912    7.2163    1.8400 H   0  0  0  0  0  0
   17.2541    8.8155    3.8899 H   0  0  0  0  0  0
  1  2  1  0  0  0
  1 19  1  0  0  0
  1 29  1  0  0  0
  1 30  1  0  0  0
  2  3  1  0  0  0
  2  4  1  0  0  0
  2 20  1  0  0  0
  3 31  1  0  0  0
  3 32  1  0  0  0
  3 33  1  0  0  0
  4 17  1  0  0  0
  4 18  2  0  0  0
  5  6  1  0  0  0
  5 17  1  0  0  0
  5 34  1  0  0  0
  5 35  1  0  0  0
  6 14  1  0  0  0
  6 15  1  0  0  0
  6 16  1  0  0  0
  7  8  2  0  0  0
  7 20  1  0  0  0
  7 21  1  0  0  0
  8  9  1  0  0  0
  8 36  1  0  0  0
  9 22  2  0  0  0
  9 37  1  0  0  0
 10 11  1  0  0  0
 10 21  2  0  0  0
 10 22  1  0  0  0
 11 12  2  0  0  0
 11 23  1  0  0  0
 12 28  1  0  0  0
 12 38  1  0  0  0
 13 23  2  0  0  0
 13 27  1  0  0  0
 13 28  1  0  0  0
 17 39  1  0  0  0
 19 40  1  0  0  0
 19 41  1  0  0  0
 19 42  1  0  0  0
 20 43  1  0  0  0
 22 48  1  0  0  0
 23 24  1  0  0  0
 24 25  2  0  0  0
 24 44  1  0  0  0
 25 26  1  0  0  0
 25 45  1  0  0  0
 26 27  2  0  0  0
 26 46  1  0  0  0
 28 47  1  0  0  0
M  CHG  2  22   1  28   1
M  END
> <s_m_source_file>
../4yti_ligand.sdf

> <i_m_source_file_index>
1

> <s_epik_input>
RkMoRikoRilbQ0gyXVtOSF1DKD1PKVtDQEBdKFtDSDNdKShbQ0gyXVtDSDNdKVtOSF1jMVtjSF1bY0hdbmMobjEpLWMoW2NIXVtuSF0yKWMoYzIzKVtjSF1bY0hdW2NIXW4z

> <s_epik_cmdline>
J2VwaWtfYXBwJywgJy1pbWFlJywgJ2xpZ2FuZF9wcm8ubWFlJywgJy1vbWFlJywgJ2xpZ2FuZF9wcmVwLm1hZScsICctbXMnLCAnMScsICctcGgnLCAnNycsICctcGh0JywgJzAuNScsICctbnQn

> <r_epik_Ionization_Penalty>
  0.1228

> <r_epik_Ionization_Penalty_Charging>
  0.0538

> <r_epik_Ionization_Penalty_Neutral>
  0.0690

> <r_epik_State_Penalty>
  0.2922

> <r_epik_Charging_Adjusted_Penalty>
0.345991268543878

> <i_epik_Tot_Q>
2

> <i_epik_Tot_abs_Q>
2

$$$$
