4yuw_ligand
                    3D
 Schrodinger Suite 2020-3.
 24 24  0  0  1  0            999 V2000
   17.5730   52.2450   -1.8590 N   0  3  0  0  0  0
   18.4430   53.0640   -0.9300 C   0  0  1  0  0  0
   19.8650   52.9310   -1.4380 C   0  0  0  0  0  0
   18.0340   54.5610   -0.9380 C   0  0  0  0  0  0
   19.0380   55.5000   -0.2410 C   0  0  0  0  0  0
   20.4620   55.3220   -0.7380 C   0  0  1  0  0  0
   21.4550   56.0710    0.1690 C   0  0  0  0  0  0
   20.8290   53.8330   -0.6000 C   0  0  0  0  0  0
   17.8916   51.1926   -1.8269 H   0  0  0  0  0  0
   17.6720   52.6269   -2.8858 H   0  0  0  0  0  0
   16.5231   52.3202   -1.5395 H   0  0  0  0  0  0
   18.3416   52.6775    0.0948 H   0  0  0  0  0  0
   20.1887   51.8833   -1.3516 H   0  0  0  0  0  0
   19.9084   53.2424   -2.4921 H   0  0  0  0  0  0
   17.9377   54.9092   -1.9770 H   0  0  0  0  0  0
   17.0708   54.6807   -0.4204 H   0  0  0  0  0  0
   18.7493   56.5457   -0.4231 H   0  0  0  0  0  0
   19.0350   55.3019    0.8410 H   0  0  0  0  0  0
   20.5049   55.6984   -1.7707 H   0  0  0  0  0  0
   21.2521   57.1511    0.1214 H   0  0  0  0  0  0
   22.4824   55.8755   -0.1720 H   0  0  0  0  0  0
   21.3400   55.7216    1.2057 H   0  0  0  0  0  0
   20.7628   53.5530    0.4617 H   0  0  0  0  0  0
   21.8615   53.6927   -0.9525 H   0  0  0  0  0  0
  1  2  1  0  0  0
  1  9  1  0  0  0
  1 10  1  0  0  0
  1 11  1  0  0  0
  2  3  1  0  0  0
  2  4  1  0  0  0
  2 12  1  0  0  0
  3  8  1  0  0  0
  3 13  1  0  0  0
  3 14  1  0  0  0
  4  5  1  0  0  0
  4 15  1  0  0  0
  4 16  1  0  0  0
  5  6  1  0  0  0
  5 17  1  0  0  0
  5 18  1  0  0  0
  6  7  1  0  0  0
  6  8  1  0  0  0
  6 19  1  0  0  0
  7 20  1  0  0  0
  7 21  1  0  0  0
  7 22  1  0  0  0
  8 23  1  0  0  0
  8 24  1  0  0  0
M  CHG  1   1   1
M  END
> <s_m_source_file>
../4yuw_ligand.sdf

> <i_m_source_file_index>
1

> <s_epik_input>
W05IMytdW0NASF0xW0NIMl1bQ0gyXVtDQEhdKFtDSDNdKVtDSDJdW0NIMl0x

> <s_epik_cmdline>
J2VwaWtfYXBwJywgJy1pbWFlJywgJ2xpZ2FuZF9wcm8ubWFlJywgJy1vbWFlJywgJ2xpZ2FuZF9wcmVwLm1hZScsICctbXMnLCAnMScsICctcGgnLCAnNycsICctcGh0JywgJzAuNScsICctbnQn

> <r_lp_tautomer_probability>
1

> <r_epik_Ionization_Penalty>
  0.0001

> <r_epik_Ionization_Penalty_Charging>
  0.0001

> <r_epik_Ionization_Penalty_Neutral>
  0.0000

> <r_epik_State_Penalty>
 -0.0000

> <r_epik_Charging_Adjusted_Penalty>
0.000129345632963202

> <i_epik_Tot_Q>
1

> <i_epik_Tot_abs_Q>
1

$$$$
