4yux_ligand
                    3D
 Schrodinger Suite 2020-3.
 20 21  0  0  1  0            999 V2000
    4.0180    8.6040   38.4760 C   0  0  0  0  0  0
    4.1880    7.2860   38.8360 C   0  0  0  0  0  0
    2.9150    8.9730   37.7210 C   0  0  0  0  0  0
    3.2810    6.3160   38.4050 C   0  0  0  0  0  0
    1.9940    8.0030   37.3040 C   0  0  0  0  0  0
    2.2030    6.7020   37.6190 C   0  0  0  0  0  0
   -0.2480    7.8080   36.5480 C   0  0  0  0  0  0
   -0.4810    6.5830   37.3030 C   0  0  0  0  0  0
    0.8830    8.4390   36.5570 N   0  3  0  0  0  0
   -1.3420    8.3380   35.9030 N   0  0  0  0  0  0
    0.9890    5.5200   37.0330 S   0  0  0  0  0  0
    4.7470    9.3539   38.7830 H   0  0  0  0  0  0
    5.0342    6.9987   39.4601 H   0  0  0  0  0  0
    2.7644   10.0184   37.4517 H   0  0  0  0  0  0
    3.4170    5.2705   38.6815 H   0  0  0  0  0  0
   -0.6004    6.8265   38.3691 H   0  0  0  0  0  0
   -1.3943    6.0931   36.9343 H   0  0  0  0  0  0
    1.0053    9.3572   35.9637 H   0  0  0  0  0  0
   -2.2974    7.7929   35.9021 H   0  0  0  0  0  0
   -1.2610    9.3068   35.3883 H   0  0  0  0  0  0
  1  2  2  0  0  0
  1  3  1  0  0  0
  1 12  1  0  0  0
  2  4  1  0  0  0
  2 13  1  0  0  0
  3  5  2  0  0  0
  3 14  1  0  0  0
  4  6  2  0  0  0
  4 15  1  0  0  0
  5  6  1  0  0  0
  5  9  1  0  0  0
  6 11  1  0  0  0
  7  8  1  0  0  0
  7  9  2  0  0  0
  7 10  1  0  0  0
  8 11  1  0  0  0
  8 16  1  0  0  0
  8 17  1  0  0  0
  9 18  1  0  0  0
 10 19  1  0  0  0
 10 20  1  0  0  0
M  CHG  1   9   1
M  END
> <s_m_source_file>
../4yux_ligand.sdf

> <i_m_source_file_index>
1

> <s_epik_input>
W2NIXTFbY0hdW2NIXVtjSF1jKGMxMilTW0NIMl0vQyhbTkhdMik9TlxbSF0=

> <s_epik_cmdline>
J2VwaWtfYXBwJywgJy1pbWFlJywgJ2xpZ2FuZF9wcm8ubWFlJywgJy1vbWFlJywgJ2xpZ2FuZF9wcmVwLm1hZScsICctbXMnLCAnMScsICctcGgnLCAnNycsICctcGh0JywgJzAuNScsICctbnQn

> <r_lp_tautomer_probability>
1

> <r_epik_Ionization_Penalty>
  0.0089

> <r_epik_Ionization_Penalty_Charging>
  0.0089

> <r_epik_Ionization_Penalty_Neutral>
  0.0000

> <r_epik_State_Penalty>
 -0.0000

> <r_epik_Charging_Adjusted_Penalty>
0.00893485625999723

> <i_epik_Tot_Q>
1

> <i_epik_Tot_abs_Q>
1

> <s_epik_Chemistry_Notes>
This compound has an imine and may undergo hydrolysis.

$$$$
