4yuy_ligand
                    3D
 Schrodinger Suite 2020-3.
 20 21  0  0  1  0            999 V2000
    0.2190    8.8790   36.0340 N   0  0  0  0  0  0
    0.5560    7.7710   36.7650 C   0  0  0  0  0  0
   -0.3560    6.7950   36.6960 N   0  3  0  0  0  0
   -0.0420    5.6970   37.4080 C   0  0  0  0  0  0
    1.1020    5.5610   38.1590 C   0  0  0  0  0  0
    2.0160    6.5970   38.2030 C   0  0  0  0  0  0
    3.1890    6.5270   38.9440 C   0  0  0  0  0  0
    4.0550    7.5970   38.9370 C   0  0  0  0  0  0
    3.8030    8.7310   38.2110 C   0  0  0  0  0  0
    2.6260    8.7900   37.4890 C   0  0  0  0  0  0
    1.7280    7.7360   37.4870 C   0  0  0  0  0  0
   -0.7199    8.8953   35.4612 H   0  0  0  0  0  0
    0.8873    9.7526   36.0197 H   0  0  0  0  0  0
   -0.7404    4.8604   37.3881 H   0  0  0  0  0  0
    1.2868    4.6424   38.7158 H   0  0  0  0  0  0
    3.4212    5.6343   39.5248 H   0  0  0  0  0  0
    4.9695    7.5402   39.5274 H   0  0  0  0  0  0
    4.5091    9.5613   38.2030 H   0  0  0  0  0  0
    2.3999    9.6848   36.9091 H   0  0  0  0  0  0
   -1.2657    6.9339   36.0933 H   0  0  0  0  0  0
  1  2  1  0  0  0
  1 12  1  0  0  0
  1 13  1  0  0  0
  2  3  2  0  0  0
  2 11  1  0  0  0
  3  4  1  0  0  0
  3 20  1  0  0  0
  4  5  2  0  0  0
  4 14  1  0  0  0
  5  6  1  0  0  0
  5 15  1  0  0  0
  6  7  1  0  0  0
  6 11  2  0  0  0
  7  8  2  0  0  0
  7 16  1  0  0  0
  8  9  1  0  0  0
  8 17  1  0  0  0
  9 10  2  0  0  0
  9 18  1  0  0  0
 10 11  1  0  0  0
 10 19  1  0  0  0
M  CHG  1   3   1
M  END
> <s_m_source_file>
../4yuy_ligand.sdf

> <i_m_source_file_index>
1

> <s_epik_input>
W2NIXTFbY0hdbmMoW05IMl0pYyhjMTIpW2NIXVtjSF1bY0hdW2NIXTI=

> <s_epik_cmdline>
J2VwaWtfYXBwJywgJy1pbWFlJywgJ2xpZ2FuZF9wcm8ubWFlJywgJy1vbWFlJywgJ2xpZ2FuZF9wcmVwLm1hZScsICctbXMnLCAnMScsICctcGgnLCAnNycsICctcGh0JywgJzAuNScsICctbnQn

> <r_epik_Ionization_Penalty>
  0.3840

> <r_epik_Ionization_Penalty_Charging>
  0.3840

> <r_epik_Ionization_Penalty_Neutral>
  0.0000

> <r_epik_State_Penalty>
  0.3823

> <r_epik_Charging_Adjusted_Penalty>
0.766302561592088

> <i_epik_Tot_Q>
1

> <i_epik_Tot_abs_Q>
1

$$$$
