4yuz_ligand
                    3D
 Schrodinger Suite 2020-3.
 38 40  0  0  1  0            999 V2000
   -4.1230  -20.8590  -55.4880 C   0  0  0  0  0  0
   -1.7450  -16.3100  -58.4400 C   0  0  0  0  0  0
   -4.1260  -16.2290  -58.2210 C   0  0  0  0  0  0
   -1.6550  -16.5650  -57.0830 C   0  0  0  0  0  0
   -4.0230  -16.5060  -56.8570 C   0  0  0  0  0  0
   -5.2570  -21.2830  -54.8270 C   0  0  0  0  0  0
   -3.6130  -19.5800  -55.3440 C   0  0  0  0  0  0
   -5.4540  -19.1400  -53.8340 C   0  0  0  0  0  0
   -2.9870  -16.1370  -59.0110 C   0  0  0  0  0  0
   -2.7740  -16.6700  -56.2970 C   0  0  0  0  0  0
   -5.9610  -20.4290  -53.9840 C   0  0  0  0  0  0
   -4.2920  -18.7200  -54.4990 C   0  0  0  0  0  0
   -6.1680  -18.3290  -52.9810 C   0  0  0  0  0  0
   -7.6670  -20.0140  -52.5260 C   0  0  0  0  0  0
   -3.0910  -15.8210  -60.4810 C   0  0  0  0  0  0
   -2.5980  -16.9880  -54.8610 C   0  0  0  0  0  0
   -7.0530  -20.8710  -53.3620 N   0  3  0  0  0  0
   -7.2540  -18.7690  -52.3250 N   0  0  0  0  0  0
   -5.7600  -17.0050  -52.7670 N   0  0  0  0  0  0
   -8.8250  -20.3600  -51.8000 N   0  0  0  0  0  0
   -3.8400  -17.4170  -54.3230 O   0  0  0  0  0  0
   -3.6091  -21.5573  -56.1486 H   0  0  0  0  0  0
   -0.8440  -16.2467  -59.0501 H   0  0  0  0  0  0
   -5.1084  -16.0836  -58.6702 H   0  0  0  0  0  0
   -0.6718  -16.6852  -56.6281 H   0  0  0  0  0  0
   -4.9189  -16.5916  -56.2421 H   0  0  0  0  0  0
   -5.6078  -22.3054  -54.9676 H   0  0  0  0  0  0
   -2.7145  -19.2638  -55.8739 H   0  0  0  0  0  0
   -2.0838  -15.7938  -60.9223 H   0  0  0  0  0  0
   -3.5754  -14.8422  -60.6122 H   0  0  0  0  0  0
   -3.6897  -16.5964  -60.9813 H   0  0  0  0  0  0
   -1.8517  -17.7886  -54.7516 H   0  0  0  0  0  0
   -2.2540  -16.0905  -54.3262 H   0  0  0  0  0  0
   -4.8747  -16.6113  -53.2878 H   0  0  0  0  0  0
   -6.3251  -16.3598  -52.0783 H   0  0  0  0  0  0
   -9.2519  -21.3694  -51.8940 H   0  0  0  0  0  0
   -9.3016  -19.6205  -51.1396 H   0  0  0  0  0  0
   -7.4129  -21.8946  -53.5432 H   0  0  0  0  0  0
  1  6  2  0  0  0
  1  7  1  0  0  0
  1 22  1  0  0  0
  2  4  2  0  0  0
  2  9  1  0  0  0
  2 23  1  0  0  0
  3  5  1  0  0  0
  3  9  2  0  0  0
  3 24  1  0  0  0
  4 10  1  0  0  0
  4 25  1  0  0  0
  5 10  2  0  0  0
  5 26  1  0  0  0
  6 11  1  0  0  0
  6 27  1  0  0  0
  7 12  2  0  0  0
  7 28  1  0  0  0
  8 11  2  0  0  0
  8 12  1  0  0  0
  8 13  1  0  0  0
  9 15  1  0  0  0
 10 16  1  0  0  0
 11 17  1  0  0  0
 12 21  1  0  0  0
 13 18  2  0  0  0
 13 19  1  0  0  0
 14 17  2  0  0  0
 14 18  1  0  0  0
 14 20  1  0  0  0
 15 29  1  0  0  0
 15 30  1  0  0  0
 15 31  1  0  0  0
 16 21  1  0  0  0
 16 32  1  0  0  0
 16 33  1  0  0  0
 17 38  1  0  0  0
 19 34  1  0  0  0
 19 35  1  0  0  0
 20 36  1  0  0  0
 20 37  1  0  0  0
M  CHG  1  17   1
M  END
> <s_m_source_file>
../4yuz_ligand.sdf

> <i_m_source_file_index>
1

> <s_epik_input>
W05IMl1jMW5jKFtOSDJdKW5jKGMxMilbY0hdW2NIXVtjSF1jMk9bQ0gyXWMoW2NIXVtjSF0zKVtjSF1bY0hdYzNbQ0gzXQ==

> <s_epik_cmdline>
J2VwaWtfYXBwJywgJy1pbWFlJywgJ2xpZ2FuZF9wcm8ubWFlJywgJy1vbWFlJywgJ2xpZ2FuZF9wcmVwLm1hZScsICctbXMnLCAnMScsICctcGgnLCAnNycsICctcGh0JywgJzAuNScsICctbnQn

> <r_epik_Ionization_Penalty>
  0.0129

> <r_epik_Ionization_Penalty_Charging>
  0.0129

> <r_epik_Ionization_Penalty_Neutral>
  0.0000

> <r_epik_State_Penalty>
  0.0339

> <r_epik_Charging_Adjusted_Penalty>
0.0468120270168073

> <i_epik_Tot_Q>
1

> <i_epik_Tot_abs_Q>
1

$$$$
