4yv0_ligand
                    3D
 Schrodinger Suite 2020-3.
 35 37  0  0  1  0            999 V2000
   -9.6090  -14.4390  -61.2110 C   0  0  0  0  0  0
  -10.7850  -15.1550  -61.3530 C   0  0  0  0  0  0
   -9.3030  -13.7940  -60.0250 C   0  0  0  0  0  0
  -13.0540  -19.8700  -53.9510 C   0  0  0  0  0  0
  -12.0110  -19.2540  -53.2770 C   0  0  0  0  0  0
  -11.6950  -15.2150  -60.3220 C   0  0  0  0  0  0
  -10.2230  -13.8610  -58.9970 C   0  0  0  0  0  0
  -13.3490  -19.4980  -55.2420 C   0  0  0  0  0  0
  -11.2690  -18.2500  -53.8710 C   0  0  0  0  0  0
  -11.4140  -14.5640  -59.1450 C   0  0  0  0  0  0
  -12.5820  -18.5070  -55.8380 C   0  0  0  0  0  0
  -11.5530  -17.8690  -55.1670 C   0  0  0  0  0  0
  -12.1930  -15.4070  -56.9360 C   0  0  0  0  0  0
  -11.7020  -17.6900  -57.7750 C   0  0  0  0  0  0
  -11.1320  -16.4780  -57.0620 C   0  0  2  0  0  0
  -13.5210  -13.7570  -58.1970 C   0  0  0  0  0  0
  -12.3660  -14.6440  -58.0950 N   0  0  0  0  0  0
  -12.8390  -15.2800  -55.8850 O   0  0  0  0  0  0
  -12.8770  -18.1520  -57.1260 O   0  0  0  0  0  0
  -10.7890  -16.8340  -55.7250 O   0  0  0  0  0  0
   -8.9121  -14.3821  -62.0472 H   0  0  0  0  0  0
  -10.9920  -15.6752  -62.2882 H   0  0  0  0  0  0
   -8.3657  -13.2505  -59.9062 H   0  0  0  0  0  0
  -13.6389  -20.6472  -53.4592 H   0  0  0  0  0  0
  -11.7716  -19.5667  -52.2606 H   0  0  0  0  0  0
  -12.6253  -15.7711  -60.4376 H   0  0  0  0  0  0
  -10.0124  -13.3550  -58.0548 H   0  0  0  0  0  0
  -14.1672  -19.9712  -55.7849 H   0  0  0  0  0  0
  -10.4650  -17.7625  -53.3196 H   0  0  0  0  0  0
  -11.9526  -17.4212  -58.8118 H   0  0  0  0  0  0
  -10.9567  -18.4990  -57.7759 H   0  0  0  0  0  0
  -10.2302  -16.1300  -57.5871 H   0  0  0  0  0  0
  -13.5001  -13.2378  -59.1666 H   0  0  0  0  0  0
  -13.4878  -13.0168  -57.3839 H   0  0  0  0  0  0
  -14.4453  -14.3480  -58.1174 H   0  0  0  0  0  0
  1  2  2  0  0  0
  1  3  1  0  0  0
  1 21  1  0  0  0
  2  6  1  0  0  0
  2 22  1  0  0  0
  3  7  2  0  0  0
  3 23  1  0  0  0
  4  5  2  0  0  0
  4  8  1  0  0  0
  4 24  1  0  0  0
  5  9  1  0  0  0
  5 25  1  0  0  0
  6 10  2  0  0  0
  6 26  1  0  0  0
  7 10  1  0  0  0
  7 27  1  0  0  0
  8 11  2  0  0  0
  8 28  1  0  0  0
  9 12  2  0  0  0
  9 29  1  0  0  0
 10 17  1  0  0  0
 11 12  1  0  0  0
 11 19  1  0  0  0
 12 20  1  0  0  0
 13 15  1  0  0  0
 13 17  1  0  0  0
 13 18  2  0  0  0
 14 15  1  0  0  0
 14 19  1  0  0  0
 14 30  1  0  0  0
 14 31  1  0  0  0
 15 20  1  0  0  0
 15 32  1  0  0  0
 16 17  1  0  0  0
 16 33  1  0  0  0
 16 34  1  0  0  0
 16 35  1  0  0  0
M  END
> <s_m_source_file>
../4yv0_ligand.sdf

> <i_m_source_file_index>
1

> <s_epik_input>
W2NIXTFbY0hdW2NIXVtjSF1bY0hdYzFOKFtDSDNdKUMoPU8pW0NASF0oW0NIMl1PMilPYyhjMjMpW2NIXVtjSF1bY0hdW2NIXTM=

> <s_epik_cmdline>
J2VwaWtfYXBwJywgJy1pbWFlJywgJ2xpZ2FuZF9wcm8ubWFlJywgJy1vbWFlJywgJ2xpZ2FuZF9wcmVwLm1hZScsICctbXMnLCAnMScsICctcGgnLCAnNycsICctcGh0JywgJzAuNScsICctbnQn

> <r_lp_tautomer_probability>
1

> <r_epik_Ionization_Penalty>
  0.0000

> <r_epik_Ionization_Penalty_Charging>
  0.0000

> <r_epik_Ionization_Penalty_Neutral>
  0.0000

> <r_epik_State_Penalty>
 -0.0000

> <r_epik_Charging_Adjusted_Penalty>
0

> <i_epik_Tot_Q>
0

> <i_epik_Tot_abs_Q>
0

$$$$
