4yv1_ligand
                    3D
 Schrodinger Suite 2020-3.
 35 37  0  0  1  0            999 V2000
  -11.2290  -18.4200  -53.5950 C   0  0  0  0  0  0
  -15.4770  -20.4740  -54.5420 C   0  0  0  0  0  0
  -12.2790  -19.2420  -53.2270 C   0  0  0  0  0  0
  -14.4020  -20.2630  -53.6960 C   0  0  0  0  0  0
  -11.2750  -17.7970  -54.8180 C   0  0  0  0  0  0
  -15.4700  -19.8320  -55.7580 C   0  0  0  0  0  0
  -13.3580  -19.4380  -54.0760 C   0  0  0  0  0  0
  -13.4290  -18.8190  -55.3130 C   0  0  0  0  0  0
  -12.3650  -17.9990  -55.6490 C   0  0  0  0  0  0
  -13.0210  -16.1670  -56.7230 C   0  0  0  0  0  0
  -12.7160  -14.0160  -60.3140 C   0  0  0  0  0  0
  -13.1990  -13.3490  -59.0360 C   0  0  0  0  0  0
  -11.8360  -15.2050  -60.0200 C   0  0  0  0  0  0
  -13.8930  -14.3140  -58.1030 C   0  0  0  0  0  0
  -12.6340  -16.1680  -59.1750 C   0  0  0  0  0  0
  -14.4770  -19.0210  -56.1440 N   0  0  0  0  0  0
  -13.1340  -15.5420  -57.9620 N   0  0  0  0  0  0
  -13.4680  -15.7180  -55.6630 O   0  0  0  0  0  0
  -12.3500  -17.3640  -56.8790 O   0  0  0  0  0  0
  -10.3811  -18.2696  -52.9268 H   0  0  0  0  0  0
  -16.3010  -21.1268  -54.2541 H   0  0  0  0  0  0
  -12.2581  -19.7415  -52.2584 H   0  0  0  0  0  0
  -14.3776  -20.7511  -52.7217 H   0  0  0  0  0  0
  -10.4585  -17.1472  -55.1331 H   0  0  0  0  0  0
  -16.3084  -19.9900  -56.4364 H   0  0  0  0  0  0
  -13.5823  -14.3606  -60.8977 H   0  0  0  0  0  0
  -12.1372  -13.2937  -60.9084 H   0  0  0  0  0  0
  -12.3402  -12.9193  -58.4995 H   0  0  0  0  0  0
  -13.9121  -12.5497  -59.2864 H   0  0  0  0  0  0
  -11.5367  -15.6822  -60.9648 H   0  0  0  0  0  0
  -10.9391  -14.8721  -59.4772 H   0  0  0  0  0  0
  -14.0007  -13.8514  -57.1108 H   0  0  0  0  0  0
  -14.8878  -14.5595  -58.5030 H   0  0  0  0  0  0
  -13.4953  -16.5355  -59.7522 H   0  0  0  0  0  0
  -11.9971  -17.0171  -58.8861 H   0  0  0  0  0  0
  1  3  2  0  0  0
  1  5  1  0  0  0
  1 20  1  0  0  0
  2  4  1  0  0  0
  2  6  2  0  0  0
  2 21  1  0  0  0
  3  7  1  0  0  0
  3 22  1  0  0  0
  4  7  2  0  0  0
  4 23  1  0  0  0
  5  9  2  0  0  0
  5 24  1  0  0  0
  6 16  1  0  0  0
  6 25  1  0  0  0
  7  8  1  0  0  0
  8  9  1  0  0  0
  8 16  2  0  0  0
  9 19  1  0  0  0
 10 17  1  0  0  0
 10 18  2  0  0  0
 10 19  1  0  0  0
 11 12  1  0  0  0
 11 13  1  0  0  0
 11 26  1  0  0  0
 11 27  1  0  0  0
 12 14  1  0  0  0
 12 28  1  0  0  0
 12 29  1  0  0  0
 13 15  1  0  0  0
 13 30  1  0  0  0
 13 31  1  0  0  0
 14 17  1  0  0  0
 14 32  1  0  0  0
 14 33  1  0  0  0
 15 17  1  0  0  0
 15 34  1  0  0  0
 15 35  1  0  0  0
M  END
> <s_m_source_file>
../4yv1_ligand.sdf

> <i_m_source_file_index>
1

> <s_epik_input>
W2NIXTFbY0hdW2NIXW5jKGMxMiljKFtjSF1bY0hdW2NIXTIpT0MoPU8pTjNbQ0gyXVtDSDJdW0NIMl1bQ0gyXVtDSDJdMw==

> <s_epik_cmdline>
J2VwaWtfYXBwJywgJy1pbWFlJywgJ2xpZ2FuZF9wcm8ubWFlJywgJy1vbWFlJywgJ2xpZ2FuZF9wcmVwLm1hZScsICctbXMnLCAnMScsICctcGgnLCAnNycsICctcGh0JywgJzAuNScsICctbnQn

> <r_lp_tautomer_probability>
1

> <r_epik_Ionization_Penalty>
  0.0000

> <r_epik_Ionization_Penalty_Charging>
  0.0000

> <r_epik_Ionization_Penalty_Neutral>
  0.0000

> <r_epik_State_Penalty>
 -0.0000

> <r_epik_Charging_Adjusted_Penalty>
0

> <i_epik_Tot_Q>
0

> <i_epik_Tot_abs_Q>
0

$$$$
