4yv2_ligand
                    3D
 Schrodinger Suite 2020-3.
 20 20  0  0  1  0            999 V2000
   11.2040    7.5940    4.9110 C   0  0  0  0  0  0
   11.5950    8.8440    5.3490 C   0  0  0  0  0  0
   11.6240    6.4610    5.6020 C   0  0  0  0  0  0
   12.4070    8.9210    6.4680 C   0  0  0  0  0  0
   12.4390    6.5390    6.7170 C   0  0  0  0  0  0
   12.8360    7.7850    7.1500 C   0  0  0  0  0  0
   14.9380    7.9340   10.1090 C   0  0  0  0  0  0
   15.5530    7.3850   11.1670 C   0  0  0  0  0  0
   14.5060    7.1340    8.9400 C   0  0  0  0  0  0
   13.6430    7.9750    8.2830 N   0  0  0  0  0  0
   14.8720    5.9900    8.6790 O   0  0  0  0  0  0
   16.0510    5.7430   11.4590 S   0  5  0  0  0  0
   10.5704    7.4952    4.0296 H   0  0  0  0  0  0
   11.2731    9.7456    4.8279 H   0  0  0  0  0  0
   11.3002    5.4804    5.2532 H   0  0  0  0  0  0
   12.7203    9.9016    6.8264 H   0  0  0  0  0  0
   12.7589    5.6375    7.2396 H   0  0  0  0  0  0
   14.7380    9.0155   10.0892 H   0  0  0  0  0  0
   15.8199    8.0088   12.0328 H   0  0  0  0  0  0
   13.6446    8.9456    8.8006 H   0  0  0  0  0  0
  1  2  2  0  0  0
  1  3  1  0  0  0
  1 13  1  0  0  0
  2  4  1  0  0  0
  2 14  1  0  0  0
  3  5  2  0  0  0
  3 15  1  0  0  0
  4  6  2  0  0  0
  4 16  1  0  0  0
  5  6  1  0  0  0
  5 17  1  0  0  0
  6 10  1  0  0  0
  7  8  2  0  0  0
  7  9  1  0  0  0
  7 18  1  0  0  0
  8 12  1  0  0  0
  8 19  1  0  0  0
  9 10  1  0  0  0
  9 11  2  0  0  0
 10 20  1  0  0  0
M  CHG  1  12  -1
M  END
> <s_m_source_file>
../4yv2_ligand.sdf

> <i_m_source_file_index>
1

> <s_epik_input>
W2NIXTFbY0hdW2NIXVtjSF1bY0hdYzFbTkhdQyg9TykvW0NIXT1bQ0hdXFtTSF0=

> <s_epik_cmdline>
J2VwaWtfYXBwJywgJy1pbWFlJywgJ2xpZ2FuZF9wcm8ubWFlJywgJy1vbWFlJywgJ2xpZ2FuZF9wcmVwLm1hZScsICctbXMnLCAnMScsICctcGgnLCAnNycsICctcGh0JywgJzAuNScsICctbnQn

> <r_lp_tautomer_probability>
1

> <r_epik_Ionization_Penalty>
  0.0362

> <r_epik_Ionization_Penalty_Charging>
  0.0039

> <r_epik_Ionization_Penalty_Neutral>
  0.0323

> <r_epik_State_Penalty>
 -0.0000

> <r_epik_Charging_Adjusted_Penalty>
0.00390886864102036

> <i_epik_Tot_Q>
-1

> <i_epik_Tot_abs_Q>
1

$$$$
