4yv5_ligand
                    3D
 Schrodinger Suite 2020-3.
120127  0  0  1  0            999 V2000
  -17.1490  -15.2140    9.1900 O   0  0  0  0  0  0
  -18.2780  -15.9280    8.4790 S   0  0  0  0  0  0
  -18.3110  -15.2110    7.1520 O   0  0  0  0  0  0
  -17.9500  -17.3970    8.3050 O   0  5  0  0  0  0
  -19.8240  -15.7380    9.3620 C   0  0  0  0  0  0
  -20.3620  -14.5380    9.5790 C   0  0  0  0  0  0
  -21.5510  -14.4210   10.2650 C   0  0  0  0  0  0
  -22.1890  -12.7800   10.4940 S   0  0  0  0  0  0
  -22.0180  -12.2810   11.9110 O   0  0  0  0  0  0
  -21.3420  -11.7790    9.7310 O   0  5  0  0  0  0
  -23.6290  -12.7080   10.0480 O   0  0  0  0  0  0
  -20.4660  -16.8410    9.8260 C   0  0  0  0  0  0
  -21.6970  -16.7380   10.5390 C   0  0  0  0  0  0
  -22.2120  -17.8510   10.9270 C   0  0  0  0  0  0
  -21.3400  -19.3500   10.5410 S   0  0  0  0  0  0
  -20.0070  -19.4060   11.2530 O   0  5  0  0  0  0
  -22.0510  -20.5390   11.1410 O   0  0  0  0  0  0
  -21.1820  -19.5010    9.0460 O   0  0  0  0  0  0
  -23.4220  -18.0470   11.6520 C   0  0  0  0  0  0
  -24.1250  -16.6940   11.9490 C   0  0  0  0  0  0
  -22.2300  -15.5900   10.7560 C   0  0  0  0  0  0
  -23.4100  -15.4850   11.4420 C   0  0  0  0  0  0
  -24.1030  -14.2530   11.7440 N   0  0  0  0  0  0
  -24.2330  -13.8860   13.1360 C   0  0  0  0  0  0
  -23.7640  -14.5920   14.0110 O   0  0  0  0  0  0
  -25.0260  -12.6260   13.5510 C   0  0  0  0  0  0
  -25.6960  -12.6880   14.7790 C   0  0  0  0  0  0
  -25.1400  -11.4960   12.7510 C   0  0  0  0  0  0
  -25.9120  -10.4100   13.2010 C   0  0  0  0  0  0
  -26.5760  -10.4710   14.4390 C   0  0  0  0  0  0
  -27.4100   -9.3060   14.9280 C   0  0  0  0  0  0
  -26.4640  -11.6110   15.2270 C   0  0  0  0  0  0
  -27.1360  -11.7270   16.4930 N   0  0  0  0  0  0
  -26.4270  -11.7630   17.7340 C   0  0  0  0  0  0
  -25.2160  -11.6980   17.7660 O   0  0  0  0  0  0
  -27.2410  -11.9190   19.0280 C   0  0  0  0  0  0
  -26.7640  -12.7670   20.0150 C   0  0  0  0  0  0
  -28.4520  -11.2560   19.2100 C   0  0  0  0  0  0
  -29.1750  -11.4330   20.3960 C   0  0  0  0  0  0
  -28.6900  -12.2810   21.3940 C   0  0  0  0  0  0
  -27.4750  -12.9350   21.2050 C   0  0  0  0  0  0
  -26.9160  -13.8490   22.1710 N   0  0  0  0  0  0
  -27.0950  -13.8630   23.6150 C   0  0  0  0  0  0
  -27.7640  -13.0410   24.2190 O   0  0  0  0  0  0
  -26.3930  -14.9480   24.2770 N   0  0  0  0  0  0
  -26.3220  -15.2710   25.6920 C   0  0  0  0  0  0
  -26.0530  -16.6130   25.9780 C   0  0  0  0  0  0
  -26.4590  -14.3620   26.7320 C   0  0  0  0  0  0
  -26.3450  -14.8110   28.0620 C   0  0  0  0  0  0
  -26.0870  -16.1660   28.3460 C   0  0  0  0  0  0
  -25.9390  -17.0570   27.2890 C   0  0  0  0  0  0
  -25.6620  -18.5770   27.4340 C   0  0  0  0  0  0
  -25.8000  -19.1640   28.4860 O   0  0  0  0  0  0
  -25.2500  -19.2300   26.2200 N   0  0  0  0  0  0
  -24.9660  -20.6520   26.0950 C   0  0  0  0  0  0
  -23.6580  -21.1560   26.1970 C   0  0  0  0  0  0
  -26.0380  -21.5100   25.8340 C   0  0  0  0  0  0
  -27.4490  -20.9590   25.7150 C   0  0  0  0  0  0
  -25.8140  -22.8830   25.6880 C   0  0  0  0  0  0
  -24.5060  -23.3850   25.8060 C   0  0  0  0  0  0
  -23.4380  -22.5370   26.0510 C   0  0  0  0  0  0
  -22.0130  -23.1380   26.1620 C   0  0  0  0  0  0
  -21.5520  -23.7640   25.2230 O   0  0  0  0  0  0
  -21.2780  -22.9500   27.4030 N   0  0  0  0  0  0
  -19.9210  -23.4370   27.6510 C   0  0  0  0  0  0
  -19.0310  -23.4580   26.6140 C   0  0  0  0  0  0
  -17.7610  -23.8820   26.7970 C   0  0  0  0  0  0
  -17.3580  -24.2870   28.0460 C   0  0  0  0  0  0
  -15.6730  -24.8510   28.2540 S   0  0  0  0  0  0
  -14.9740  -24.1670   29.4010 O   0  0  0  0  0  0
  -15.6460  -26.3000   28.6890 O   0  5  0  0  0  0
  -14.9140  -24.6680   26.9620 O   0  0  0  0  0  0
  -19.5100  -23.8480   28.9680 C   0  0  0  0  0  0
  -18.2800  -24.2590   29.1370 C   0  0  0  0  0  0
  -17.8490  -24.6610   30.3520 C   0  0  0  0  0  0
  -20.3480  -23.8270   29.9950 C   0  0  0  0  0  0
  -22.0350  -23.2880   29.7860 S   0  0  0  0  0  0
  -22.7590  -24.2320   28.8610 O   0  0  0  0  0  0
  -22.7420  -23.2370   31.1260 O   0  5  0  0  0  0
  -22.1470  -21.8550   29.3330 O   0  0  0  0  0  0
  -20.0700  -24.2110   31.3280 C   0  0  0  0  0  0
  -18.6520  -24.6950   31.5740 C   0  0  0  0  0  0
  -18.0680  -25.2200   33.1630 S   0  0  0  0  0  0
  -18.7950  -26.4590   33.6350 O   0  0  0  0  0  0
  -16.6380  -25.7080   33.0960 O   0  5  0  0  0  0
  -18.2090  -24.0840   34.1450 O   0  0  0  0  0  0
  -19.8583  -13.6439    9.2115 H   0  0  0  0  0  0
  -20.0317  -17.8251    9.6500 H   0  0  0  0  0  0
  -23.8052  -19.0202   11.9587 H   0  0  0  0  0  0
  -25.0705  -16.6317   12.4878 H   0  0  0  0  0  0
  -24.5073  -13.6352   10.9286 H   0  0  0  0  0  0
  -25.6173  -13.5861   15.3916 H   0  0  0  0  0  0
  -24.6367  -11.4516   11.7852 H   0  0  0  0  0  0
  -25.9963   -9.5143   12.5855 H   0  0  0  0  0  0
  -27.3848   -8.4983   14.1817 H   0  0  0  0  0  0
  -27.0022   -8.9376   15.8809 H   0  0  0  0  0  0
  -28.4489   -9.6357   15.0767 H   0  0  0  0  0  0
  -28.2335  -11.7916   16.5292 H   0  0  0  0  0  0
  -25.8289  -13.3056   19.8615 H   0  0  0  0  0  0
  -28.8369  -10.5996   18.4296 H   0  0  0  0  0  0
  -30.1189  -10.9075   20.5407 H   0  0  0  0  0  0
  -29.2574  -12.4297   22.3127 H   0  0  0  0  0  0
  -26.2591  -14.6664   21.8388 H   0  0  0  0  0  0
  -25.8100  -15.6684   23.6844 H   0  0  0  0  0  0
  -25.9308  -17.3219   25.1591 H   0  0  0  0  0  0
  -26.6530  -13.3103   26.5213 H   0  0  0  0  0  0
  -26.4578  -14.1012   28.8814 H   0  0  0  0  0  0
  -26.0047  -16.5104   29.3769 H   0  0  0  0  0  0
  -25.1289  -18.6465   25.2954 H   0  0  0  0  0  0
  -22.8222  -20.4828   26.3875 H   0  0  0  0  0  0
  -27.4300  -19.8684   25.8574 H   0  0  0  0  0  0
  -28.0879  -21.4181   26.4837 H   0  0  0  0  0  0
  -27.8505  -21.1916   24.7177 H   0  0  0  0  0  0
  -26.6458  -23.5575   25.4846 H   0  0  0  0  0  0
  -24.3298  -24.4558   25.7034 H   0  0  0  0  0  0
  -21.7416  -22.4073   28.2400 H   0  0  0  0  0  0
  -19.3501  -23.1281   25.6253 H   0  0  0  0  0  0
  -17.0624  -23.9024   25.9605 H   0  0  0  0  0  0
  -16.8123  -24.9887   30.4287 H   0  0  0  0  0  0
  -20.8180  -24.1630   32.1194 H   0  0  0  0  0  0
  1  2  2  0  0  0
  2  3  2  0  0  0
  2  4  1  0  0  0
  2  5  1  0  0  0
  5  6  2  0  0  0
  5 12  1  0  0  0
  6  7  1  0  0  0
  6 87  1  0  0  0
  7  8  1  0  0  0
  7 21  2  0  0  0
  8  9  2  0  0  0
  8 10  1  0  0  0
  8 11  2  0  0  0
 12 13  2  0  0  0
 12 88  1  0  0  0
 13 14  1  0  0  0
 13 21  1  0  0  0
 14 15  1  0  0  0
 14 19  2  0  0  0
 15 16  1  0  0  0
 15 17  2  0  0  0
 15 18  2  0  0  0
 19 20  1  0  0  0
 19 89  1  0  0  0
 20 22  2  0  0  0
 20 90  1  0  0  0
 21 22  1  0  0  0
 22 23  1  0  0  0
 23 24  1  0  0  0
 23 91  1  0  0  0
 24 25  2  0  0  0
 24 26  1  0  0  0
 26 27  2  0  0  0
 26 28  1  0  0  0
 27 32  1  0  0  0
 27 92  1  0  0  0
 28 29  2  0  0  0
 28 93  1  0  0  0
 29 30  1  0  0  0
 29 94  1  0  0  0
 30 31  1  0  0  0
 30 32  2  0  0  0
 31 95  1  0  0  0
 31 96  1  0  0  0
 31 97  1  0  0  0
 32 33  1  0  0  0
 33 34  1  0  0  0
 33 98  1  0  0  0
 34 35  2  0  0  0
 34 36  1  0  0  0
 36 37  2  0  0  0
 36 38  1  0  0  0
 37 41  1  0  0  0
 37 99  1  0  0  0
 38 39  2  0  0  0
 38100  1  0  0  0
 39 40  1  0  0  0
 39101  1  0  0  0
 40 41  2  0  0  0
 40102  1  0  0  0
 41 42  1  0  0  0
 42 43  1  0  0  0
 42103  1  0  0  0
 43 44  2  0  0  0
 43 45  1  0  0  0
 45 46  1  0  0  0
 45104  1  0  0  0
 46 47  2  0  0  0
 46 48  1  0  0  0
 47 51  1  0  0  0
 47105  1  0  0  0
 48 49  2  0  0  0
 48106  1  0  0  0
 49 50  1  0  0  0
 49107  1  0  0  0
 50 51  2  0  0  0
 50108  1  0  0  0
 51 52  1  0  0  0
 52 53  2  0  0  0
 52 54  1  0  0  0
 54 55  1  0  0  0
 54109  1  0  0  0
 55 56  2  0  0  0
 55 57  1  0  0  0
 56 61  1  0  0  0
 56110  1  0  0  0
 57 58  1  0  0  0
 57 59  2  0  0  0
 58111  1  0  0  0
 58112  1  0  0  0
 58113  1  0  0  0
 59 60  1  0  0  0
 59114  1  0  0  0
 60 61  2  0  0  0
 60115  1  0  0  0
 61 62  1  0  0  0
 62 63  2  0  0  0
 62 64  1  0  0  0
 64 65  1  0  0  0
 64116  1  0  0  0
 65 66  2  0  0  0
 65 73  1  0  0  0
 66 67  1  0  0  0
 66117  1  0  0  0
 67 68  2  0  0  0
 67118  1  0  0  0
 68 69  1  0  0  0
 68 74  1  0  0  0
 69 70  2  0  0  0
 69 71  1  0  0  0
 69 72  2  0  0  0
 73 74  2  0  0  0
 73 76  1  0  0  0
 74 75  1  0  0  0
 75 82  2  0  0  0
 75119  1  0  0  0
 76 77  1  0  0  0
 76 81  2  0  0  0
 77 78  2  0  0  0
 77 79  1  0  0  0
 77 80  2  0  0  0
 81 82  1  0  0  0
 81120  1  0  0  0
 82 83  1  0  0  0
 83 84  2  0  0  0
 83 85  1  0  0  0
 83 86  2  0  0  0
M  CHG  6   4  -1  10  -1  16  -1  71  -1  79  -1  85  -1
M  END
> <s_m_source_file>
../4yv5_ligand.sdf

> <i_m_source_file_index>
1

> <s_epik_input>
Tz1TKD1PKShbT0hdKWMoW2NIXTEpW2NIXWMoUyg9TykoPU8pW09IXSljKGMxMiljKFtjSF1bY0hdYzJTKD1PKSg9TylbT0hdKVtOSF1DKD1PKWMzW2NIXWMoYyhbQ0gzXSlbY0hdW2NIXTMpW05IXUMoPU8pYzRbY0hdYyhbY0hdW2NIXVtjSF00KVtOSF1DKD1PKVtOSF1jNVtjSF1jKFtjSF1bY0hdW2NIXTUpQyg9TylbTkhdYzZbY0hdYyhbY0hdW2NIXWM2W0NIM10pQyg9TylbTkhdYzdbY0hdW2NIXWMoUyg9TykoPU8pW09IXSljKGM3OClbY0hdYyhTKD1PKSg9TylbT0hdKVtjSF1jOFMoPU8pKD1PKVtPSF0=

> <s_epik_cmdline>
J2VwaWtfYXBwJywgJy1pbWFlJywgJ2xpZ2FuZF9wcm8ubWFlJywgJy1vbWFlJywgJ2xpZ2FuZF9wcmVwLm1hZScsICctbXMnLCAnMScsICctcGgnLCAnNycsICctcGh0JywgJzAuNScsICctbnQn

> <r_lp_tautomer_probability>
1

> <r_epik_Ionization_Penalty>
  0.0001

> <r_epik_Ionization_Penalty_Charging>
  0.0000

> <r_epik_Ionization_Penalty_Neutral>
  0.0001

> <r_epik_State_Penalty>
 -0.0000

> <r_epik_Charging_Adjusted_Penalty>
6.57741979899129e-06

> <i_epik_Tot_Q>
-6

> <i_epik_Tot_abs_Q>
6

$$$$
