4yv9_ligand
                    3D
 Schrodinger Suite 2020-3.
198198  0  0  1  0            999 V2000
  -14.8950   -3.5810   76.4380 N   0  0  0  0  0  0
  -16.0670   -2.8160   76.9550 C   0  0  2  0  0  0
  -15.8090   -1.3300   77.2720 C   0  0  0  0  0  0
  -16.7400   -3.5560   78.1190 C   0  0  0  0  0  0
  -16.6200   -3.1500   79.2750 O   0  0  0  0  0  0
  -17.4620   -4.6310   77.7980 N   0  0  0  0  0  0
  -17.9890   -4.8250   76.4580 C   0  0  0  0  0  0
  -17.8860   -5.5850   78.8180 C   0  0  1  0  0  0
  -19.4050   -5.5690   78.9990 C   0  0  0  0  0  0
  -19.9560   -5.3070   80.4080 C   0  0  0  0  0  0
  -21.1670   -6.1950   80.6860 C   0  0  0  0  0  0
  -18.9360   -5.3810   81.5460 C   0  0  0  0  0  0
  -17.4820   -6.9850   78.4270 C   0  0  0  0  0  0
  -18.3910   -7.8090   77.7700 O   0  0  0  0  0  0
  -16.2480   -7.3930   78.7260 N   0  0  0  0  0  0
  -15.2880   -6.5240   79.3640 C   0  0  0  0  0  0
  -15.8120   -8.7460   78.3760 C   0  0  1  0  0  0
  -14.6450   -8.7240   77.3810 C   0  0  0  0  0  0
  -14.9510   -7.9640   76.0960 C   0  0  0  0  0  0
  -13.6920   -7.8530   75.2370 C   0  0  0  0  0  0
  -16.0960   -8.6200   75.3230 C   0  0  0  0  0  0
  -15.3260   -9.5280   79.5730 C   0  0  0  0  0  0
  -13.9710   -9.8530   79.6610 O   0  0  0  0  0  0
  -16.2170   -9.9130   80.4850 N   0  0  0  0  0  0
  -17.6520   -9.9440   80.1890 C   0  0  0  0  0  0
  -15.7570  -10.5270   81.7300 C   0  0  1  0  0  0
  -16.3880   -9.8000   82.9320 C   0  0  0  0  0  0
  -15.8560  -10.3190   84.2700 C   0  0  0  0  0  0
  -16.1680   -8.2890   82.8590 C   0  0  0  0  0  0
  -16.0360  -12.0120   81.7860 C   0  0  0  0  0  0
  -17.3470  -12.4490   82.0190 O   0  0  0  0  0  0
  -15.0370  -12.8780   81.5970 N   0  0  0  0  0  0
  -15.3830  -14.2900   81.5780 C   0  0  0  0  0  0
  -13.6500  -12.4740   81.3540 C   0  0  2  0  0  0
  -13.0610  -13.1560   80.1340 C   0  0  0  0  0  0
  -12.7430  -14.3500   80.1470 O   0  0  0  0  0  0
  -12.7700  -12.7920   82.5750 C   0  0  2  0  0  0
  -13.3430  -12.2300   83.7380 O   0  0  0  0  0  0
  -11.3240  -12.3090   82.4280 C   0  0  2  0  0  0
  -10.4200  -12.9570   83.4840 C   0  0  0  0  0  0
  -11.2180  -10.7840   82.5240 C   0  0  0  0  0  0
   -9.7670  -10.3600   82.4860 C   0  0  0  0  0  0
   -9.3260   -9.0360   82.9580 C   0  0  0  0  0  0
   -7.8720   -8.6480   82.9020 C   0  0  0  0  0  0
  -12.9120  -12.4080   79.0480 N   0  0  0  0  0  0
  -12.2990  -12.9540   77.8370 C   0  0  2  0  0  0
  -11.3020  -11.9700   77.2460 C   0  0  0  0  0  0
  -11.5700  -10.7710   77.2240 O   0  0  0  0  0  0
  -13.3690  -13.3060   76.8050 C   0  0  0  0  0  0
  -14.3780  -12.1890   76.6100 C   0  0  0  0  0  0
  -10.1290  -12.4550   76.8250 N   0  0  0  0  0  0
   -9.1260  -11.5700   76.1880 C   0  0  0  0  0  0
   -8.0660  -10.6660   76.8730 C   0  0  0  0  0  0
   -7.1170  -10.0200   76.0430 O   0  0  0  0  0  0
   -9.8100  -13.8690   76.9710 C   0  0  0  0  0  0
   -8.0610  -10.5020   78.1940 N   0  0  0  0  0  0
   -8.9580  -11.1620   79.1250 C   0  0  0  0  0  0
   -7.0530   -9.6490   78.8750 C   0  0  1  0  0  0
   -5.5870  -10.1140   78.7150 C   0  0  0  0  0  0
   -5.3550  -11.5110   79.3020 C   0  0  0  0  0  0
   -3.8770  -11.8950   79.2360 C   0  0  0  0  0  0
   -5.8900  -11.6360   80.7310 C   0  0  0  0  0  0
   -7.1160   -8.1280   78.7600 C   0  0  0  0  0  0
   -6.0710   -7.3850   79.3250 O   0  0  0  0  0  0
   -8.1520   -7.5550   78.1470 N   0  0  0  0  0  0
   -8.4200   -6.1130   78.2800 C   0  0  2  0  0  0
   -9.9030   -5.8990   78.6870 C   0  0  0  0  0  0
  -10.7580   -6.7240   78.3470 O   0  0  0  0  0  0
   -8.0840   -5.3370   76.9720 C   0  0  0  0  0  0
   -6.5830   -5.2770   76.7400 C   0  0  0  0  0  0
   -8.7810   -5.9640   75.7610 C   0  0  0  0  0  0
  -10.2270   -4.8260   79.4200 N   0  0  0  0  0  0
   -9.3090   -3.7520   79.7630 C   0  0  0  0  0  0
  -11.6010   -4.7000   79.9420 C   0  0  1  0  0  0
  -11.6720   -4.6320   81.4590 C   0  0  0  0  0  0
  -11.1730   -5.9430   82.0420 C   0  0  0  0  0  0
  -10.7840   -5.7410   83.5090 C   0  0  0  0  0  0
  -12.2300   -7.0320   81.8380 C   0  0  0  0  0  0
  -12.3740   -3.5390   79.4050 C   0  0  0  0  0  0
  -13.4620   -2.9870   80.1080 O   0  0  0  0  0  0
  -11.9510   -3.0540   78.2550 N   0  0  0  0  0  0
  -12.8750   -2.3880   77.3820 C   0  0  2  0  0  0
  -13.5690   -3.5380   76.6660 C   0  0  0  0  0  0
  -12.8550   -4.4840   76.3180 O   0  0  0  0  0  0
  -12.1630   -1.4730   76.4130 C   0  0  0  0  0  0
  -15.0438   -4.3826   75.6995 H   0  0  0  0  0  0
  -16.7463   -2.7990   76.0900 H   0  0  0  0  0  0
  -15.3273   -0.8490   76.4079 H   0  0  0  0  0  0
  -15.1506   -1.2513   78.1497 H   0  0  0  0  0  0
  -16.7650   -0.8291   77.4846 H   0  0  0  0  0  0
  -17.5937   -4.0439   75.7919 H   0  0  0  0  0  0
  -19.0870   -4.7640   76.4835 H   0  0  0  0  0  0
  -17.6852   -5.8139   76.0842 H   0  0  0  0  0  0
  -17.3706   -5.2643   79.7354 H   0  0  0  0  0  0
  -19.8411   -4.7802   78.3685 H   0  0  0  0  0  0
  -19.8196   -6.5445   78.7049 H   0  0  0  0  0  0
  -20.2664   -4.2517   80.4020 H   0  0  0  0  0  0
  -21.8779   -6.1178   79.8501 H   0  0  0  0  0  0
  -21.6564   -5.8673   81.6150 H   0  0  0  0  0  0
  -20.8389   -7.2395   80.7931 H   0  0  0  0  0  0
  -18.0794   -4.7313   81.3134 H   0  0  0  0  0  0
  -18.5889   -6.4185   81.6604 H   0  0  0  0  0  0
  -19.4064   -5.0464   82.4823 H   0  0  0  0  0  0
  -15.7541   -5.5483   79.5659 H   0  0  0  0  0  0
  -14.4210   -6.3861   78.7012 H   0  0  0  0  0  0
  -14.9574   -6.9754   80.3111 H   0  0  0  0  0  0
  -16.7277   -9.1922   77.9607 H   0  0  0  0  0  0
  -13.7740   -8.2410   77.8480 H   0  0  0  0  0  0
  -14.3848   -9.7547   77.0982 H   0  0  0  0  0  0
  -15.2777   -6.9489   76.3659 H   0  0  0  0  0  0
  -12.8901   -7.3782   75.8214 H   0  0  0  0  0  0
  -13.9077   -7.2431   74.3473 H   0  0  0  0  0  0
  -13.3720   -8.8578   74.9240 H   0  0  0  0  0  0
  -16.9845   -8.6844   75.9683 H   0  0  0  0  0  0
  -15.7956   -9.6311   75.0107 H   0  0  0  0  0  0
  -16.3314   -8.0164   74.4340 H   0  0  0  0  0  0
  -17.8385   -9.4464   79.2259 H   0  0  0  0  0  0
  -18.2019   -9.4203   80.9848 H   0  0  0  0  0  0
  -17.9926  -10.9885   80.1341 H   0  0  0  0  0  0
  -14.6631  -10.4120   81.7196 H   0  0  0  0  0  0
  -17.4673  -10.0068   82.8828 H   0  0  0  0  0  0
  -16.0112  -11.4064   84.3293 H   0  0  0  0  0  0
  -16.3931   -9.8265   85.0940 H   0  0  0  0  0  0
  -14.7814  -10.0971   84.3482 H   0  0  0  0  0  0
  -16.5483   -7.9091   81.8993 H   0  0  0  0  0  0
  -15.0929   -8.0707   82.9397 H   0  0  0  0  0  0
  -16.7045   -7.8000   83.6855 H   0  0  0  0  0  0
  -16.4583  -14.4067   81.7783 H   0  0  0  0  0  0
  -14.8064  -14.8192   82.3510 H   0  0  0  0  0  0
  -15.1460  -14.7123   80.5903 H   0  0  0  0  0  0
  -13.7132  -11.3920   81.1660 H   0  0  0  0  0  0
  -12.7644  -13.8798   82.7386 H   0  0  0  0  0  0
  -14.3831  -12.4656   84.0077 H   0  0  0  0  0  0
  -10.9876  -12.6130   81.4258 H   0  0  0  0  0  0
  -10.4987  -14.0518   83.4121 H   0  0  0  0  0  0
  -10.7356  -12.6317   84.4863 H   0  0  0  0  0  0
   -9.3773  -12.6522   83.3110 H   0  0  0  0  0  0
  -11.7501  -10.3255   81.6775 H   0  0  0  0  0  0
  -11.6687  -10.4438   83.4680 H   0  0  0  0  0  0
   -9.1673  -11.0500   83.0977 H   0  0  0  0  0  0
   -9.4056  -10.3822   81.4473 H   0  0  0  0  0  0
   -9.8270   -8.2520   82.3712 H   0  0  0  0  0  0
   -9.5851   -8.9206   84.0208 H   0  0  0  0  0  0
   -7.7490   -7.6288   83.2971 H   0  0  0  0  0  0
   -7.5235   -8.6816   81.8592 H   0  0  0  0  0  0
   -7.2815   -9.3502   83.5088 H   0  0  0  0  0  0
  -13.2570  -11.3637   79.0670 H   0  0  0  0  0  0
  -11.7691  -13.8639   78.1552 H   0  0  0  0  0  0
  -12.8911  -13.5040   75.8342 H   0  0  0  0  0  0
  -13.9153  -14.2022   77.1343 H   0  0  0  0  0  0
  -15.1223  -12.4941   75.8597 H   0  0  0  0  0  0
  -13.8593  -11.2826   76.2644 H   0  0  0  0  0  0
  -14.8835  -11.9808   77.5645 H   0  0  0  0  0  0
   -8.4630  -12.1692   75.5466 H   0  0  0  0  0  0
   -9.6400  -10.8127   75.5779 H   0  0  0  0  0  0
  -10.6498  -14.3859   77.4583 H   0  0  0  0  0  0
   -8.9049  -13.9790   77.5864 H   0  0  0  0  0  0
   -9.6344  -14.3096   75.9785 H   0  0  0  0  0  0
   -9.6790  -11.7767   78.5662 H   0  0  0  0  0  0
   -9.4989  -10.4052   79.7121 H   0  0  0  0  0  0
   -8.3759  -11.8042   79.8022 H   0  0  0  0  0  0
   -7.4652   -9.8608   79.8726 H   0  0  0  0  0  0
   -5.3267  -10.1449   77.6467 H   0  0  0  0  0  0
   -4.9203   -9.4101   79.2347 H   0  0  0  0  0  0
   -5.9230  -12.2203   78.6821 H   0  0  0  0  0  0
   -3.5185  -11.7966   78.2007 H   0  0  0  0  0  0
   -3.7534  -12.9359   79.5695 H   0  0  0  0  0  0
   -3.2955  -11.2288   79.8903 H   0  0  0  0  0  0
   -6.9532  -11.3545   80.7504 H   0  0  0  0  0  0
   -5.3217  -10.9681   81.3950 H   0  0  0  0  0  0
   -5.7795  -12.6752   81.0743 H   0  0  0  0  0  0
   -8.8133   -8.1829   77.5318 H   0  0  0  0  0  0
   -7.7440   -5.7654   79.0752 H   0  0  0  0  0  0
   -8.4444   -4.3029   77.0759 H   0  0  0  0  0  0
   -6.0944   -4.8252   77.6159 H   0  0  0  0  0  0
   -6.3739   -4.6676   75.8485 H   0  0  0  0  0  0
   -6.1946   -6.2948   76.5878 H   0  0  0  0  0  0
   -9.8655   -6.0017   75.9410 H   0  0  0  0  0  0
   -8.3994   -6.9839   75.6058 H   0  0  0  0  0  0
   -8.5787   -5.3567   74.8664 H   0  0  0  0  0  0
   -8.3232   -3.9569   79.3201 H   0  0  0  0  0  0
   -9.2132   -3.6869   80.8569 H   0  0  0  0  0  0
   -9.6961   -2.7997   79.3715 H   0  0  0  0  0  0
  -12.0472   -5.6286   79.5564 H   0  0  0  0  0  0
  -11.0425   -3.8048   81.8188 H   0  0  0  0  0  0
  -12.7134   -4.4624   81.7701 H   0  0  0  0  0  0
  -10.2662   -6.2725   81.5136 H   0  0  0  0  0  0
  -10.0248   -4.9482   83.5812 H   0  0  0  0  0  0
  -10.3743   -6.6789   83.9122 H   0  0  0  0  0  0
  -11.6734   -5.4508   84.0875 H   0  0  0  0  0  0
  -12.4606   -7.1229   80.7663 H   0  0  0  0  0  0
  -13.1439   -6.7636   82.3883 H   0  0  0  0  0  0
  -11.8447   -7.9917   82.2129 H   0  0  0  0  0  0
  -10.8955   -3.1576   77.9630 H   0  0  0  0  0  0
  -13.5497   -1.7426   77.9636 H   0  0  0  0  0  0
  -11.6761   -0.6580   76.9686 H   0  0  0  0  0  0
  -12.8913   -1.0504   75.7052 H   0  0  0  0  0  0
  -11.4032   -2.0446   75.8598 H   0  0  0  0  0  0
  1  2  1  0  0  0
  1 83  1  0  0  0
  1 86  1  0  0  0
  2  3  1  0  0  0
  2  4  1  0  0  0
  2 87  1  0  0  0
  3 88  1  0  0  0
  3 89  1  0  0  0
  3 90  1  0  0  0
  4  5  2  0  0  0
  4  6  1  0  0  0
  6  7  1  0  0  0
  6  8  1  0  0  0
  7 91  1  0  0  0
  7 92  1  0  0  0
  7 93  1  0  0  0
  8  9  1  0  0  0
  8 13  1  0  0  0
  8 94  1  0  0  0
  9 10  1  0  0  0
  9 95  1  0  0  0
  9 96  1  0  0  0
 10 11  1  0  0  0
 10 12  1  0  0  0
 10 97  1  0  0  0
 11 98  1  0  0  0
 11 99  1  0  0  0
 11100  1  0  0  0
 12101  1  0  0  0
 12102  1  0  0  0
 12103  1  0  0  0
 13 14  2  0  0  0
 13 15  1  0  0  0
 15 16  1  0  0  0
 15 17  1  0  0  0
 16104  1  0  0  0
 16105  1  0  0  0
 16106  1  0  0  0
 17 18  1  0  0  0
 17 22  1  0  0  0
 17107  1  0  0  0
 18 19  1  0  0  0
 18108  1  0  0  0
 18109  1  0  0  0
 19 20  1  0  0  0
 19 21  1  0  0  0
 19110  1  0  0  0
 20111  1  0  0  0
 20112  1  0  0  0
 20113  1  0  0  0
 21114  1  0  0  0
 21115  1  0  0  0
 21116  1  0  0  0
 22 23  2  0  0  0
 22 24  1  0  0  0
 24 25  1  0  0  0
 24 26  1  0  0  0
 25117  1  0  0  0
 25118  1  0  0  0
 25119  1  0  0  0
 26 27  1  0  0  0
 26 30  1  0  0  0
 26120  1  0  0  0
 27 28  1  0  0  0
 27 29  1  0  0  0
 27121  1  0  0  0
 28122  1  0  0  0
 28123  1  0  0  0
 28124  1  0  0  0
 29125  1  0  0  0
 29126  1  0  0  0
 29127  1  0  0  0
 30 31  2  0  0  0
 30 32  1  0  0  0
 32 33  1  0  0  0
 32 34  1  0  0  0
 33128  1  0  0  0
 33129  1  0  0  0
 33130  1  0  0  0
 34 35  1  0  0  0
 34 37  1  0  0  0
 34131  1  0  0  0
 35 36  2  0  0  0
 35 45  1  0  0  0
 37 38  1  0  0  0
 37 39  1  0  0  0
 37132  1  0  0  0
 38133  1  0  0  0
 39 40  1  0  0  0
 39 41  1  0  0  0
 39134  1  0  0  0
 40135  1  0  0  0
 40136  1  0  0  0
 40137  1  0  0  0
 41 42  1  0  0  0
 41138  1  0  0  0
 41139  1  0  0  0
 42 43  1  0  0  0
 42140  1  0  0  0
 42141  1  0  0  0
 43 44  1  0  0  0
 43142  1  0  0  0
 43143  1  0  0  0
 44144  1  0  0  0
 44145  1  0  0  0
 44146  1  0  0  0
 45 46  1  0  0  0
 45147  1  0  0  0
 46 47  1  0  0  0
 46 49  1  0  0  0
 46148  1  0  0  0
 47 48  2  0  0  0
 47 51  1  0  0  0
 49 50  1  0  0  0
 49149  1  0  0  0
 49150  1  0  0  0
 50151  1  0  0  0
 50152  1  0  0  0
 50153  1  0  0  0
 51 52  1  0  0  0
 51 55  1  0  0  0
 52 53  1  0  0  0
 52154  1  0  0  0
 52155  1  0  0  0
 53 54  2  0  0  0
 53 56  1  0  0  0
 55156  1  0  0  0
 55157  1  0  0  0
 55158  1  0  0  0
 56 57  1  0  0  0
 56 58  1  0  0  0
 57159  1  0  0  0
 57160  1  0  0  0
 57161  1  0  0  0
 58 59  1  0  0  0
 58 63  1  0  0  0
 58162  1  0  0  0
 59 60  1  0  0  0
 59163  1  0  0  0
 59164  1  0  0  0
 60 61  1  0  0  0
 60 62  1  0  0  0
 60165  1  0  0  0
 61166  1  0  0  0
 61167  1  0  0  0
 61168  1  0  0  0
 62169  1  0  0  0
 62170  1  0  0  0
 62171  1  0  0  0
 63 64  2  0  0  0
 63 65  1  0  0  0
 65 66  1  0  0  0
 65172  1  0  0  0
 66 67  1  0  0  0
 66 69  1  0  0  0
 66173  1  0  0  0
 67 68  2  0  0  0
 67 72  1  0  0  0
 69 70  1  0  0  0
 69 71  1  0  0  0
 69174  1  0  0  0
 70175  1  0  0  0
 70176  1  0  0  0
 70177  1  0  0  0
 71178  1  0  0  0
 71179  1  0  0  0
 71180  1  0  0  0
 72 73  1  0  0  0
 72 74  1  0  0  0
 73181  1  0  0  0
 73182  1  0  0  0
 73183  1  0  0  0
 74 75  1  0  0  0
 74 79  1  0  0  0
 74184  1  0  0  0
 75 76  1  0  0  0
 75185  1  0  0  0
 75186  1  0  0  0
 76 77  1  0  0  0
 76 78  1  0  0  0
 76187  1  0  0  0
 77188  1  0  0  0
 77189  1  0  0  0
 77190  1  0  0  0
 78191  1  0  0  0
 78192  1  0  0  0
 78193  1  0  0  0
 79 80  2  0  0  0
 79 81  1  0  0  0
 81 82  1  0  0  0
 81194  1  0  0  0
 82 83  1  0  0  0
 82 85  1  0  0  0
 82195  1  0  0  0
 83 84  2  0  0  0
 85196  1  0  0  0
 85197  1  0  0  0
 85198  1  0  0  0
M  END
> <s_m_source_file>
../4yv9_ligand.sdf

> <i_m_source_file_index>
1

> <s_epik_input>
W0NIM11bQ0BIXTFbTkhdQyg9TylbQ0BIXShbQ0gzXSlbTkhdQyg9TylbQ0BIXShbQ0gyXVtDSF0oW0NIM10pW0NIM10pTihbQ0gzXSlDKD1PKVtDQEhdKFtDSF0oW0NIM10pW0NIM10pW05IXUMoPU8pW0NASF0oW0NIMl1bQ0hdKFtDSDNdKVtDSDNdKU4oW0NIM10pQyg9TylbQ0gyXU4oW0NIM10pQyg9TylbQ0BIXShbQ0gyXVtDSDNdKVtOSF1DKD1PKVtDQEhdKFtDQEhdKFtPSF0pW0NASF0oW0NIM10pW0NIMl1bQ0gyXVtDSDJdW0NIM10pTihbQ0gzXSlDKD1PKVtDQEhdKFtDSF0oW0NIM10pW0NIM10pTihbQ0gzXSlDKD1PKVtDQEhdKFtDSDJdW0NIXShbQ0gzXSlbQ0gzXSlOKFtDSDNdKUMoPU8pW0NAQEhdKE4oQzE9TylbQ0gzXSlbQ0gyXVtDSF0oW0NIM10pW0NIM10=

> <s_epik_cmdline>
J2VwaWtfYXBwJywgJy1pbWFlJywgJ2xpZ2FuZF9wcm8ubWFlJywgJy1vbWFlJywgJ2xpZ2FuZF9wcmVwLm1hZScsICctbXMnLCAnMScsICctcGgnLCAnNycsICctcGh0JywgJzAuNScsICctbnQn

> <s_epik_pKa_notes>
Molecule size exceeds maximum supported for generating protonation states

$$$$
