4yvz_ligand
                    3D
 Schrodinger Suite 2020-3.
 42 44  0  0  1  0            999 V2000
    8.6030  -39.1930   37.1790 P   0  0  0  0  0  0
    7.8440  -38.8220   35.9320 O   0  5  0  0  0  0
    9.4250  -40.4420   37.0040 O   0  5  0  0  0  0
    7.6720  -39.4540   38.3120 O   0  0  0  0  0  0
    9.2800  -36.5280   37.9750 P   0  0  1  0  0  0
    9.8680  -35.4930   37.0280 O   0  5  0  0  0  0
    7.8130  -36.3090   38.1880 O   0  0  0  0  0  0
    9.5780  -37.9890   37.4470 O   0  0  0  0  0  0
    9.7310  -36.9320   40.7470 P   0  0  2  0  0  0
    8.4460  -37.7050   40.7480 O   0  0  0  0  0  0
    9.5120  -35.6890   41.5750 O   0  5  0  0  0  0
   10.1170  -36.4250   39.3110 O   0  0  0  0  0  0
   10.9490  -37.7770   41.2990 O   0  0  0  0  0  0
   11.0810  -39.1610   41.1150 C   0  0  0  0  0  0
   12.5010  -39.6020   41.2760 C   0  0  1  0  0  0
   13.2860  -38.9080   40.4780 O   0  0  0  0  0  0
   13.1130  -39.3740   42.7660 C   0  0  0  0  0  0
   14.3800  -39.4640   42.5690 C   0  0  1  0  0  0
   14.8460  -40.8660   42.6150 O   0  0  0  0  0  0
   14.6610  -38.9200   41.1120 C   0  0  2  0  0  0
   15.1090  -37.7090   41.2190 N   0  0  0  0  0  0
   14.4040  -36.5620   41.2800 C   0  0  0  0  0  0
   15.2660  -35.5410   41.4220 N   0  0  0  0  0  0
   16.5090  -36.0630   41.4730 C   0  0  0  0  0  0
   17.7380  -35.4370   41.6100 C   0  0  0  0  0  0
   18.1620  -34.1030   41.7580 N   0  0  0  0  0  0
   18.8630  -36.1730   41.6290 N   0  0  0  0  0  0
   18.7770  -37.5370   41.5030 C   0  0  0  0  0  0
   17.5630  -38.1530   41.3690 N   0  0  0  0  0  0
   16.4250  -37.4030   41.3550 C   0  0  0  0  0  0
   10.4657  -39.6899   41.8577 H   0  0  0  0  0  0
   10.7455  -39.4300   40.1025 H   0  0  0  0  0  0
   12.5183  -40.6268   40.8767 H   0  0  0  0  0  0
   12.8103  -38.3845   43.1392 H   0  0  0  0  0  0
   12.7317  -40.1533   43.4422 H   0  0  0  0  0  0
   14.7544  -38.9110   43.4431 H   0  0  0  0  0  0
   14.7477  -41.4481   43.5432 H   0  0  0  0  0  0
   15.4572  -39.3675   40.4990 H   0  0  0  0  0  0
   13.3188  -36.4770   41.2237 H   0  0  0  0  0  0
   17.4220  -33.2893   41.7743 H   0  0  0  0  0  0
   19.2333  -33.8742   41.8574 H   0  0  0  0  0  0
   19.6872  -38.1367   41.5098 H   0  0  0  0  0  0
  1  2  1  0  0  0
  1  3  1  0  0  0
  1  4  2  0  0  0
  1  8  1  0  0  0
  5  6  1  0  0  0
  5  7  2  0  0  0
  5  8  1  0  0  0
  5 12  1  0  0  0
  9 10  2  0  0  0
  9 11  1  0  0  0
  9 12  1  0  0  0
  9 13  1  0  0  0
 13 14  1  0  0  0
 14 15  1  0  0  0
 14 31  1  0  0  0
 14 32  1  0  0  0
 15 16  1  0  0  0
 15 17  1  0  0  0
 15 33  1  0  0  0
 16 20  1  0  0  0
 17 18  1  0  0  0
 17 34  1  0  0  0
 17 35  1  0  0  0
 18 19  1  0  0  0
 18 20  1  0  0  0
 18 36  1  0  0  0
 19 37  1  0  0  0
 20 21  1  0  0  0
 20 38  1  0  0  0
 21 22  1  0  0  0
 21 30  1  0  0  0
 22 23  2  0  0  0
 22 39  1  0  0  0
 23 24  1  0  0  0
 24 25  2  0  0  0
 24 30  1  0  0  0
 25 26  1  0  0  0
 25 27  1  0  0  0
 26 40  1  0  0  0
 26 41  1  0  0  0
 27 28  2  0  0  0
 28 29  1  0  0  0
 28 42  1  0  0  0
 29 30  2  0  0  0
M  CHG  4   2  -1   3  -1   6  -1  11  -1
M  END
> <s_m_source_file>
../4yvz_ligand.sdf

> <i_m_source_file_index>
1

> <s_epik_input>
W09IXVAoPU8pKFtPSF0pT1tQQF0oPU8pKFtPSF0pT1tQQF0oPU8pKFtPSF0pT1tDSDJdW0NASF0xT1tDQEhdKFtDQEBIXShbQ0gyXTEpW09IXSluKFtjSF1uMiljKGMyMyluW2NIXW5jM1tOSDJd

> <s_epik_cmdline>
J2VwaWtfYXBwJywgJy1pbWFlJywgJ2xpZ2FuZF9wcm8ubWFlJywgJy1vbWFlJywgJ2xpZ2FuZF9wcmVwLm1hZScsICctbXMnLCAnMScsICctcGgnLCAnNycsICctcGh0JywgJzAuNScsICctbnQn

> <r_lp_tautomer_probability>
0.999997216410988

> <r_epik_Ionization_Penalty>
  0.0819

> <r_epik_Ionization_Penalty_Charging>
  0.0815

> <r_epik_Ionization_Penalty_Neutral>
  0.0005

> <r_epik_State_Penalty>
  0.0709

> <r_epik_Charging_Adjusted_Penalty>
0.152372170405469

> <i_epik_Tot_Q>
-4

> <i_epik_Tot_abs_Q>
4

> <s_epik_Chemistry_Notes>
This compound contains an acetal/aminal-like group ( X-CH(R)-Y where X, Y are N, S, or O) that may be acid/base labile, releasing an aldehyde.

$$$$
