4yw2_ligand
                    3D
 Schrodinger Suite 2020-3.
 60 61  0  0  1  0            999 V2000
   26.6890  -15.1890   50.4750 C   0  0  0  0  0  0
   25.6490  -14.3590   51.1810 C   0  0  2  0  0  0
   26.2360  -13.5350   52.3360 C   0  0  0  0  0  0
   27.0100  -12.3430   51.8010 C   0  0  1  0  0  0
   26.1020  -11.5340   50.8810 C   0  0  2  0  0  0
   25.6030  -12.4080   49.7350 C   0  0  2  0  0  0
   24.5880  -11.7370   48.8050 C   0  0  1  0  0  0
   24.0080  -12.7070   47.7950 C   0  0  1  0  0  0
   23.5450  -11.9170   46.5820 C   0  0  0  0  0  0
   26.3800   -9.1900   50.1490 C   0  0  0  0  0  0
   27.3480   -8.1520   49.6220 C   0  0  0  0  0  0
   26.8490  -10.4290   50.3070 N   0  0  0  0  0  0
   26.6700  -15.2220   49.2320 O   0  0  0  0  0  0
   27.4880  -15.8680   51.1610 O   0  5  0  0  0  0
   24.6630  -15.2890   51.6950 O   0  0  0  0  0  0
   27.5020  -11.5460   52.8870 O   0  0  0  0  0  0
   24.9290  -13.5450   50.2380 O   0  0  0  0  0  0
   23.5360  -11.1820   49.6040 O   0  0  0  0  0  0
   24.9840  -13.6750   47.3810 O   0  0  0  0  0  0
   22.5410  -12.6890   45.9550 O   0  0  0  0  0  0
   25.2390   -8.8670   50.4410 O   0  0  0  0  0  0
   20.7370  -16.0900   52.3640 C   0  0  2  0  0  0
   20.1470  -17.4630   52.0220 C   0  0  1  0  0  0
   21.1810  -18.6030   52.0650 C   0  0  2  0  0  0
   22.4880  -18.2280   51.3950 C   0  0  2  0  0  0
   22.9330  -16.8920   51.9320 C   0  0  1  0  0  0
   24.2370  -16.5130   51.2750 C   0  0  0  0  0  0
   19.8280  -15.0310   52.0280 O   0  0  0  0  0  0
   19.1040  -17.7360   52.9610 O   0  0  0  0  0  0
   20.6950  -19.7660   51.3920 O   0  0  0  0  0  0
   22.3120  -18.0940   49.9850 O   0  0  0  0  0  0
   21.9460  -15.9000   51.6330 O   0  0  0  0  0  0
   25.4205  -13.1716   52.9786 H   0  0  0  0  0  0
   26.9159  -14.1655   52.9277 H   0  0  0  0  0  0
   27.9179  -12.6588   51.2662 H   0  0  0  0  0  0
   25.2654  -11.1157   51.4599 H   0  0  0  0  0  0
   26.5064  -12.7177   49.1892 H   0  0  0  0  0  0
   25.0589  -10.9081   48.2562 H   0  0  0  0  0  0
   23.1979  -13.2940   48.2523 H   0  0  0  0  0  0
   23.1456  -10.9453   46.9079 H   0  0  0  0  0  0
   24.3955  -11.7549   45.9035 H   0  0  0  0  0  0
   28.3186   -8.6269   49.4162 H   0  0  0  0  0  0
   27.4797   -7.3589   50.3727 H   0  0  0  0  0  0
   26.9490   -7.7161   48.6942 H   0  0  0  0  0  0
   27.8828  -10.5832   49.9641 H   0  0  0  0  0  0
   28.1716  -11.9919   53.6372 H   0  0  0  0  0  0
   23.7712  -10.4538   50.3942 H   0  0  0  0  0  0
   25.4406  -14.3473   48.1223 H   0  0  0  0  0  0
   22.0498  -12.3169   45.0438 H   0  0  0  0  0  0
   20.9579  -15.9955   53.4374 H   0  0  0  0  0  0
   19.7052  -17.4326   51.0151 H   0  0  0  0  0  0
   21.3431  -18.8708   53.1195 H   0  0  0  0  0  0
   23.2380  -19.0192   51.5417 H   0  0  0  0  0  0
   23.0269  -16.9177   53.0277 H   0  0  0  0  0  0
   24.0887  -16.4955   50.1852 H   0  0  0  0  0  0
   24.9918  -17.2714   51.5302 H   0  0  0  0  0  0
   18.8302  -14.9955   52.4896 H   0  0  0  0  0  0
   18.2681  -17.0301   53.0752 H   0  0  0  0  0  0
   19.7475  -20.2278   51.7066 H   0  0  0  0  0  0
   21.9864  -18.9578   49.3868 H   0  0  0  0  0  0
  1  2  1  0  0  0
  1 13  2  0  0  0
  1 14  1  0  0  0
  2  3  1  0  0  0
  2 15  1  0  0  0
  2 17  1  0  0  0
  3  4  1  0  0  0
  3 33  1  0  0  0
  3 34  1  0  0  0
  4  5  1  0  0  0
  4 16  1  0  0  0
  4 35  1  0  0  0
  5  6  1  0  0  0
  5 12  1  0  0  0
  5 36  1  0  0  0
  6  7  1  0  0  0
  6 17  1  0  0  0
  6 37  1  0  0  0
  7  8  1  0  0  0
  7 18  1  0  0  0
  7 38  1  0  0  0
  8  9  1  0  0  0
  8 19  1  0  0  0
  8 39  1  0  0  0
  9 20  1  0  0  0
  9 40  1  0  0  0
  9 41  1  0  0  0
 10 11  1  0  0  0
 10 12  1  0  0  0
 10 21  2  0  0  0
 11 42  1  0  0  0
 11 43  1  0  0  0
 11 44  1  0  0  0
 12 45  1  0  0  0
 15 27  1  0  0  0
 16 46  1  0  0  0
 18 47  1  0  0  0
 19 48  1  0  0  0
 20 49  1  0  0  0
 22 23  1  0  0  0
 22 28  1  0  0  0
 22 32  1  0  0  0
 22 50  1  0  0  0
 23 24  1  0  0  0
 23 29  1  0  0  0
 23 51  1  0  0  0
 24 25  1  0  0  0
 24 30  1  0  0  0
 24 52  1  0  0  0
 25 26  1  0  0  0
 25 31  1  0  0  0
 25 53  1  0  0  0
 26 27  1  0  0  0
 26 32  1  0  0  0
 26 54  1  0  0  0
 27 55  1  0  0  0
 27 56  1  0  0  0
 28 57  1  0  0  0
 29 58  1  0  0  0
 30 59  1  0  0  0
 31 60  1  0  0  0
M  CHG  1  14  -1
M  END
> <s_m_source_file>
../4yw2_ligand.sdf

> <i_m_source_file_index>
1

> <s_epik_input>
W09IXVtDQEhdMVtDQEhdKFtPSF0pW0NAQEhdKFtPSF0pW0NAQEhdKFtPSF0pW0NASF0oTzEpW0NIMl1PW0NAXTIoQyg9TylbT0hdKVtDSDJdW0NASF0oW09IXSlbQ0BASF0oW05IXUMoPU8pW0NIM10pW0NAQEhdKE8yKVtDQEhdKFtPSF0pW0NASF0oW09IXSlbQ0gyXVtPSF0=

> <s_epik_cmdline>
J2VwaWtfYXBwJywgJy1pbWFlJywgJ2xpZ2FuZF9wcm8ubWFlJywgJy1vbWFlJywgJ2xpZ2FuZF9wcmVwLm1hZScsICctbXMnLCAnMScsICctcGgnLCAnNycsICctcGh0JywgJzAuNScsICctbnQn

> <r_lp_tautomer_probability>
1

> <r_epik_Ionization_Penalty>
  0.0000

> <r_epik_Ionization_Penalty_Charging>
  0.0000

> <r_epik_Ionization_Penalty_Neutral>
  0.0000

> <r_epik_State_Penalty>
 -0.0000

> <r_epik_Charging_Adjusted_Penalty>
3.56892623120892e-05

> <i_epik_Tot_Q>
-1

> <i_epik_Tot_abs_Q>
1

> <s_epik_Chemistry_Notes>
This compound contains an acetal/aminal-like group ( X-CH(R)-Y where X, Y are N, S, or O) that may be acid/base labile, releasing an aldehyde.

$$$$
