4yw6_ligand
                    3D
 Schrodinger Suite 2020-3.
 70 72  0  0  1  0            999 V2000
  -10.2370   13.6910   54.8850 C   0  0  0  0  0  0
  -10.7830   13.5840   53.4730 C   0  0  0  0  0  0
   -9.9890   12.4100   52.9540 C   0  0  0  0  0  0
   -8.6250   12.6120   53.6320 C   0  0  0  0  0  0
   -8.8130   13.5760   54.6980 N   0  0  0  0  0  0
   -7.7570   14.2940   55.4430 C   0  0  0  0  0  0
   -8.0370   15.0740   56.3300 O   0  0  0  0  0  0
   -6.3020   14.0000   55.1000 C   0  0  2  0  0  0
   -5.6080   13.4030   56.3370 C   0  0  0  0  0  0
   -4.8320   14.4040   57.2210 C   0  0  0  0  0  0
   -5.1760   14.2070   58.7210 C   0  0  0  0  0  0
   -4.0090   13.6030   59.4950 C   0  0  0  0  0  0
   -4.4630   13.0900   60.7540 N   0  3  0  0  0  0
   -5.5640   15.0930   54.5140 N   0  0  0  0  0  0
   -4.4680   14.6880   53.6740 C   0  0  0  0  0  0
   -4.2970   13.4910   53.5640 O   0  0  0  0  0  0
   -3.4600   15.5420   52.8760 C   0  0  0  0  0  0
   -3.5380   17.0340   52.5360 C   0  0  0  0  0  0
   -2.5310   17.6130   51.7780 C   0  0  0  0  0  0
   -1.3790   16.7490   51.3040 C   0  0  0  0  0  0
   -1.3300   15.4380   51.5960 C   0  0  0  0  0  0
   -2.4260   14.8060   52.4150 C   0  0  0  0  0  0
   -0.2560   17.1930   50.5110 O   0  0  0  0  0  0
   -0.3360   18.4390   49.8550 C   0  0  2  0  0  0
   -1.2320   18.3510   48.7610 O   0  0  0  0  0  0
   -1.3560   19.6070   48.1190 C   0  0  2  0  0  0
   -2.3600   19.4390   47.0080 C   0  0  0  0  0  0
   -3.6180   19.1050   47.5600 O   0  0  0  0  0  0
   -0.0340   20.0960   47.5640 C   0  0  2  0  0  0
    0.4570   19.2720   46.5240 O   0  0  0  0  0  0
    1.0000   20.0990   48.6680 C   0  0  2  0  0  0
    2.2490   20.3400   48.0950 O   0  0  0  0  0  0
    1.0360   18.7650   49.3590 C   0  0  1  0  0  0
    1.9590   18.8090   50.4280 O   0  0  0  0  0  0
  -10.5276   14.6595   55.3181 H   0  0  0  0  0  0
  -10.6478   12.8765   55.4997 H   0  0  0  0  0  0
  -11.8670   13.4013   53.5119 H   0  0  0  0  0  0
  -10.5885   14.5221   52.9326 H   0  0  0  0  0  0
  -10.4817   11.4731   53.2532 H   0  0  0  0  0  0
   -9.9338   12.4610   51.8566 H   0  0  0  0  0  0
   -8.2711   11.6524   54.0369 H   0  0  0  0  0  0
   -7.9009   12.9881   52.8943 H   0  0  0  0  0  0
   -6.2821   13.3157   54.2390 H   0  0  0  0  0  0
   -6.3602   12.9356   56.9896 H   0  0  0  0  0  0
   -4.8778   12.6448   56.0176 H   0  0  0  0  0  0
   -3.7511   14.2520   57.0849 H   0  0  0  0  0  0
   -5.0972   15.4314   56.9311 H   0  0  0  0  0  0
   -5.4226   15.1798   59.1714 H   0  0  0  0  0  0
   -6.0387   13.5308   58.8136 H   0  0  0  0  0  0
   -3.5666   12.7829   58.9104 H   0  0  0  0  0  0
   -3.2484   14.3770   59.6747 H   0  0  0  0  0  0
   -3.6127   12.6576   61.3018 H   0  0  0  0  0  0
   -5.2214   12.3123   60.5810 H   0  0  0  0  0  0
   -4.9032   13.9064   61.3453 H   0  0  0  0  0  0
   -5.8584   16.1315   54.7258 H   0  0  0  0  0  0
   -4.3771   17.6349   52.8866 H   0  0  0  0  0  0
   -2.5674   18.6731   51.5270 H   0  0  0  0  0  0
   -0.4971   14.8315   51.2403 H   0  0  0  0  0  0
   -2.3834   13.7400   52.6383 H   0  0  0  0  0  0
   -0.7486   19.1870   50.5481 H   0  0  0  0  0  0
   -1.6901   20.3137   48.8929 H   0  0  0  0  0  0
   -2.4438   20.3798   46.4442 H   0  0  0  0  0  0
   -2.0294   18.6355   46.3334 H   0  0  0  0  0  0
   -4.4825   18.9415   46.8997 H   0  0  0  0  0  0
   -0.1866   21.0809   47.0986 H   0  0  0  0  0  0
   -0.1390   19.1245   45.6113 H   0  0  0  0  0  0
    0.8154   20.9052   49.3933 H   0  0  0  0  0  0
    2.4285   21.2721   47.5391 H   0  0  0  0  0  0
    1.4036   17.9676   48.6965 H   0  0  0  0  0  0
    2.1206   17.9178   51.0522 H   0  0  0  0  0  0
  1  2  1  0  0  0
  1  5  1  0  0  0
  1 35  1  0  0  0
  1 36  1  0  0  0
  2  3  1  0  0  0
  2 37  1  0  0  0
  2 38  1  0  0  0
  3  4  1  0  0  0
  3 39  1  0  0  0
  3 40  1  0  0  0
  4  5  1  0  0  0
  4 41  1  0  0  0
  4 42  1  0  0  0
  5  6  1  0  0  0
  6  7  2  0  0  0
  6  8  1  0  0  0
  8  9  1  0  0  0
  8 14  1  0  0  0
  8 43  1  0  0  0
  9 10  1  0  0  0
  9 44  1  0  0  0
  9 45  1  0  0  0
 10 11  1  0  0  0
 10 46  1  0  0  0
 10 47  1  0  0  0
 11 12  1  0  0  0
 11 48  1  0  0  0
 11 49  1  0  0  0
 12 13  1  0  0  0
 12 50  1  0  0  0
 12 51  1  0  0  0
 13 52  1  0  0  0
 13 53  1  0  0  0
 13 54  1  0  0  0
 14 15  1  0  0  0
 14 55  1  0  0  0
 15 16  2  0  0  0
 15 17  1  0  0  0
 17 18  2  0  0  0
 17 22  1  0  0  0
 18 19  1  0  0  0
 18 56  1  0  0  0
 19 20  2  0  0  0
 19 57  1  0  0  0
 20 21  1  0  0  0
 20 23  1  0  0  0
 21 22  2  0  0  0
 21 58  1  0  0  0
 22 59  1  0  0  0
 23 24  1  0  0  0
 24 25  1  0  0  0
 24 33  1  0  0  0
 24 60  1  0  0  0
 25 26  1  0  0  0
 26 27  1  0  0  0
 26 29  1  0  0  0
 26 61  1  0  0  0
 27 28  1  0  0  0
 27 62  1  0  0  0
 27 63  1  0  0  0
 28 64  1  0  0  0
 29 30  1  0  0  0
 29 31  1  0  0  0
 29 65  1  0  0  0
 30 66  1  0  0  0
 31 32  1  0  0  0
 31 33  1  0  0  0
 31 67  1  0  0  0
 32 68  1  0  0  0
 33 34  1  0  0  0
 33 69  1  0  0  0
 34 70  1  0  0  0
M  CHG  1  13   1
M  END
> <s_m_source_file>
../4yw6_ligand.sdf

> <i_m_source_file_index>
1

> <s_epik_input>
W0NIMl0xW0NIMl1bQ0gyXVtDSDJdTjFDKD1PKVtDQEhdKFtDSDJdW0NIMl1bQ0gyXVtDSDJdW05IMytdKVtOSF1DKD1PKWMyW2NIXVtjSF1jKFtjSF1bY0hdMilPW0NAQEhdM09bQ0BIXShbQ0gyXVtPSF0pW0NASF0oW09IXSlbQ0BIXShbT0hdKVtDQEhdM1tPSF0=

> <s_epik_cmdline>
J2VwaWtfYXBwJywgJy1pbWFlJywgJ2xpZ2FuZF9wcm8ubWFlJywgJy1vbWFlJywgJ2xpZ2FuZF9wcmVwLm1hZScsICctbXMnLCAnMScsICctcGgnLCAnNycsICctcGh0JywgJzAuNScsICctbnQn

> <r_lp_tautomer_probability>
1

> <r_epik_Ionization_Penalty>
  0.0004

> <r_epik_Ionization_Penalty_Charging>
  0.0004

> <r_epik_Ionization_Penalty_Neutral>
  0.0000

> <r_epik_State_Penalty>
 -0.0000

> <r_epik_Charging_Adjusted_Penalty>
0.000409650260019425

> <i_epik_Tot_Q>
1

> <i_epik_Tot_abs_Q>
1

> <s_epik_Chemistry_Notes>
This compound contains an acetal/aminal-like group ( X-CH(R)-Y where X, Y are N, S, or O) that may be acid/base labile, releasing an aldehyde.

$$$$
