4yw7_ligand
                    3D
 Schrodinger Suite 2020-3.
148156  0  0  1  0            999 V2000
   -8.3410  -29.0070    1.4950 O   0  0  0  0  0  0
   -8.5970  -27.7780    0.8230 C   0  0  2  0  0  0
   -9.9610  -27.2580    1.2110 C   0  0  1  0  0  0
   -9.9800  -26.9470    2.6110 O   0  0  0  0  0  0
  -10.2570  -26.0140    0.4090 C   0  0  1  0  0  0
   -9.3240  -24.9820    0.7580 O   0  0  0  0  0  0
  -10.1480  -26.3640   -1.0720 C   0  0  1  0  0  0
  -10.4210  -25.1400   -1.9430 C   0  0  0  0  0  0
  -10.4230  -25.5500   -3.3090 O   0  0  0  0  0  0
   -8.8280  -26.8390   -1.3810 O   0  0  0  0  0  0
   -8.5770  -28.0460   -0.6600 C   0  0  1  0  0  0
   -7.2980  -28.5510   -1.0040 O   0  0  0  0  0  0
   -7.4330  -29.5000   -2.0700 C   0  0  0  0  0  0
   -6.0400  -29.9470   -2.4960 C   0  0  0  0  0  0
   -5.3200  -30.5630   -1.2920 C   0  0  0  0  0  0
   -3.8490  -30.7580   -1.6390 C   0  0  0  0  0  0
   -3.0140  -31.5760   -1.0300 C   0  0  0  0  0  0
   -3.1910  -30.1360   -2.6050 N   0  0  0  0  0  0
   -2.0300  -30.5490   -2.5870 N   0  0  0  0  0  0
   -1.8620  -31.3910   -1.6660 N   0  0  0  0  0  0
   -0.5990  -32.0910   -1.3790 C   0  0  2  0  0  0
   -0.6310  -33.4600   -2.0430 C   0  0  2  0  0  0
    0.5950  -34.1450   -1.7960 O   0  0  0  0  0  0
   -0.8090  -33.3100   -3.5540 C   0  0  0  0  0  0
    0.2420  -32.5020   -4.0890 O   0  0  0  0  0  0
   -0.3980  -32.2770    0.1150 C   0  0  2  0  0  0
   -0.3110  -31.0030    0.7630 O   0  0  0  0  0  0
    0.8830  -33.0420    0.3360 C   0  0  1  0  0  0
    1.0630  -33.2610    1.7450 O   0  0  0  0  0  0
    0.7620  -34.3740   -0.3920 C   0  0  2  0  0  0
    1.9960  -35.1990   -0.2050 C   0  0  0  0  0  0
    3.2190  -34.7240   -0.2010 C   0  0  0  0  0  0
    2.0480  -36.5140   -0.0270 N   0  0  0  0  0  0
    3.2510  -36.8190    0.0860 N   0  0  0  0  0  0
    3.9780  -35.7890   -0.0150 N   0  0  0  0  0  0
    5.4220  -35.6250    0.0570 C   0  0  2  0  0  0
    6.1380  -36.3640   -1.0590 C   0  0  2  0  0  0
    7.5590  -36.0940   -0.9530 O   0  0  0  0  0  0
    5.5950  -35.9220   -2.4180 C   0  0  0  0  0  0
    5.7860  -34.5120   -2.5850 O   0  0  0  0  0  0
    5.9070  -36.1470    1.3800 C   0  0  2  0  0  0
    5.2520  -35.4480    2.4490 O   0  0  0  0  0  0
    7.3740  -35.9020    1.4660 C   0  0  1  0  0  0
    7.8550  -36.4310    2.7090 O   0  0  0  0  0  0
    8.0550  -36.6000    0.3060 C   0  0  2  0  0  0
    9.5010  -36.4140    0.4430 N   0  0  0  0  0  0
   10.1410  -35.3050    0.8060 C   0  0  0  0  0  0
   10.3280  -37.3240    0.2250 N   0  0  0  0  0  0
   11.4540  -36.9430    0.4070 N   0  0  0  0  0  0
   11.4050  -35.6670    0.7710 C   0  0  0  0  0  0
   12.6270  -34.8420    1.1040 C   0  0  1  0  0  0
   13.4350  -35.7160    2.0520 C   0  0  2  0  0  0
   12.7130  -35.9150    3.2880 O   0  0  0  0  0  0
   14.7630  -35.0880    2.3390 C   0  0  1  0  0  0
   15.5060  -35.9670    3.1880 O   0  0  0  0  0  0
   13.3640  -34.5520   -0.0990 O   0  0  0  0  0  0
   14.6530  -33.9560    0.1550 C   0  0  2  0  0  0
   15.3030  -33.7080   -1.2090 C   0  0  0  0  0  0
   16.5140  -32.9670   -1.0520 O   0  0  0  0  0  0
   15.4630  -34.9380    1.0060 C   0  0  1  0  0  0
   16.8860  -34.5940    1.2150 N   0  0  0  0  0  0
   17.7320  -35.5250    0.7950 C   0  0  0  0  0  0
   17.5370  -33.6400    1.7250 N   0  0  0  0  0  0
   18.8090  -33.8870    1.6510 N   0  0  0  0  0  0
   18.9350  -35.0730    1.0680 C   0  0  0  0  0  0
   20.2230  -35.8290    0.7400 C   0  0  0  0  0  0
   20.6800  -36.6890    1.9320 C   0  0  0  0  0  0
   19.5850  -37.6000    2.4500 C   0  0  0  0  0  0
   19.1290  -38.3470    1.3140 O   0  0  0  0  0  0
   17.9380  -39.1130    1.6460 C   0  0  2  0  0  0
   18.2580  -40.2000    2.5350 O   0  0  0  0  0  0
   17.0720  -40.9380    2.9120 C   0  0  2  0  0  0
   17.4580  -42.0650    3.8710 C   0  0  0  0  0  0
   17.9640  -41.5140    5.0890 O   0  0  0  0  0  0
   16.4010  -41.5430    1.6860 C   0  0  2  0  0  0
   17.2740  -42.4920    1.0670 O   0  0  0  0  0  0
   16.0650  -40.4300    0.7100 C   0  0  2  0  0  0
   15.5070  -40.9900   -0.4890 O   0  0  0  0  0  0
   17.3210  -39.6550    0.3650 C   0  0  1  0  0  0
   16.9710  -38.5520   -0.4840 O   0  0  0  0  0  0
   -8.3110  -29.0370    2.5942 H   0  0  0  0  0  0
   -7.8108  -27.0720    1.1287 H   0  0  0  0  0  0
  -10.7362  -28.0228    1.0558 H   0  0  0  0  0  0
   -9.7843  -27.7358    3.3523 H   0  0  0  0  0  0
  -11.2459  -25.5986    0.6529 H   0  0  0  0  0  0
   -9.2742  -24.6126    1.7929 H   0  0  0  0  0  0
  -10.8471  -27.1831   -1.2963 H   0  0  0  0  0  0
  -11.3988  -24.7118   -1.6775 H   0  0  0  0  0  0
   -9.6346  -24.3890   -1.7770 H   0  0  0  0  0  0
  -10.6029  -24.8119   -4.1045 H   0  0  0  0  0  0
   -9.3364  -28.7768   -0.9749 H   0  0  0  0  0  0
   -8.0148  -30.3652   -1.7192 H   0  0  0  0  0  0
   -7.9522  -29.0283   -2.9173 H   0  0  0  0  0  0
   -6.1243  -30.6946   -3.2985 H   0  0  0  0  0  0
   -5.4722  -29.0788   -2.8618 H   0  0  0  0  0  0
   -5.4106  -29.8898   -0.4268 H   0  0  0  0  0  0
   -5.7756  -31.5345   -1.0499 H   0  0  0  0  0  0
   -3.2206  -32.2485   -0.1974 H   0  0  0  0  0  0
    0.2082  -31.4602   -1.7796 H   0  0  0  0  0  0
   -1.4280  -34.0754   -1.6002 H   0  0  0  0  0  0
   -0.7804  -34.3028   -4.0269 H   0  0  0  0  0  0
   -1.7772  -32.8318   -3.7635 H   0  0  0  0  0  0
    0.2754  -32.2863   -5.1671 H   0  0  0  0  0  0
   -1.2566  -32.7883    0.5748 H   0  0  0  0  0  0
   -1.1562  -30.3009    0.7114 H   0  0  0  0  0  0
    1.7650  -32.4747    0.0040 H   0  0  0  0  0  0
    1.1686  -32.4035    2.4258 H   0  0  0  0  0  0
   -0.1206  -34.9208   -0.0287 H   0  0  0  0  0  0
    3.5360  -33.6883   -0.3231 H   0  0  0  0  0  0
    5.6061  -34.5454   -0.0453 H   0  0  0  0  0  0
    6.0165  -37.4524   -0.9562 H   0  0  0  0  0  0
    6.1281  -36.4573   -3.2175 H   0  0  0  0  0  0
    4.5208  -36.1517   -2.4760 H   0  0  0  0  0  0
    5.4534  -34.0176   -3.5096 H   0  0  0  0  0  0
    5.6690  -37.2140    1.5023 H   0  0  0  0  0  0
    4.1587  -35.5060    2.5556 H   0  0  0  0  0  0
    7.5972  -34.8249    1.4682 H   0  0  0  0  0  0
    7.4672  -36.0385    3.6606 H   0  0  0  0  0  0
    7.8461  -37.6796    0.2765 H   0  0  0  0  0  0
    9.7205  -34.3342    1.0682 H   0  0  0  0  0  0
   12.3993  -33.8488    1.5185 H   0  0  0  0  0  0
   13.5895  -36.7124    1.6123 H   0  0  0  0  0  0
   11.7109  -36.3683    3.2727 H   0  0  0  0  0  0
   14.6822  -34.1342    2.8809 H   0  0  0  0  0  0
   15.1414  -36.1914    4.2013 H   0  0  0  0  0  0
   14.5312  -33.0090    0.7012 H   0  0  0  0  0  0
   15.5307  -34.6720   -1.6874 H   0  0  0  0  0  0
   14.6118  -33.1367   -1.8461 H   0  0  0  0  0  0
   17.1135  -32.6995   -1.9347 H   0  0  0  0  0  0
   15.5330  -35.8845    0.4499 H   0  0  0  0  0  0
   17.4803  -36.4730    0.3197 H   0  0  0  0  0  0
   20.0514  -36.4881   -0.1238 H   0  0  0  0  0  0
   21.0195  -35.1094    0.4997 H   0  0  0  0  0  0
   21.5266  -37.3207    1.6251 H   0  0  0  0  0  0
   20.9921  -36.0338    2.7586 H   0  0  0  0  0  0
   19.9961  -38.2634    3.2252 H   0  0  0  0  0  0
   18.7750  -36.9922    2.8795 H   0  0  0  0  0  0
   17.2542  -38.4529    2.1998 H   0  0  0  0  0  0
   16.4060  -40.2033    3.3880 H   0  0  0  0  0  0
   16.5722  -42.6791    4.0906 H   0  0  0  0  0  0
   18.2331  -42.6923    3.4066 H   0  0  0  0  0  0
   18.2926  -42.1810    5.8997 H   0  0  0  0  0  0
   15.5024  -42.1150    1.9605 H   0  0  0  0  0  0
   17.6217  -43.3696    1.6318 H   0  0  0  0  0  0
   15.2978  -39.7638    1.1314 H   0  0  0  0  0  0
   14.5866  -41.5903   -0.4391 H   0  0  0  0  0  0
   18.0324  -40.2808   -0.1939 H   0  0  0  0  0  0
   17.7518  -37.8662   -0.8447 H   0  0  0  0  0  0
  1  2  1  0  0  0
  1 81  1  0  0  0
  2  3  1  0  0  0
  2 11  1  0  0  0
  2 82  1  0  0  0
  3  4  1  0  0  0
  3  5  1  0  0  0
  3 83  1  0  0  0
  4 84  1  0  0  0
  5  6  1  0  0  0
  5  7  1  0  0  0
  5 85  1  0  0  0
  6 86  1  0  0  0
  7  8  1  0  0  0
  7 10  1  0  0  0
  7 87  1  0  0  0
  8  9  1  0  0  0
  8 88  1  0  0  0
  8 89  1  0  0  0
  9 90  1  0  0  0
 10 11  1  0  0  0
 11 12  1  0  0  0
 11 91  1  0  0  0
 12 13  1  0  0  0
 13 14  1  0  0  0
 13 92  1  0  0  0
 13 93  1  0  0  0
 14 15  1  0  0  0
 14 94  1  0  0  0
 14 95  1  0  0  0
 15 16  1  0  0  0
 15 96  1  0  0  0
 15 97  1  0  0  0
 16 17  2  0  0  0
 16 18  1  0  0  0
 17 20  1  0  0  0
 17 98  1  0  0  0
 18 19  2  0  0  0
 19 20  1  0  0  0
 20 21  1  0  0  0
 21 22  1  0  0  0
 21 26  1  0  0  0
 21 99  1  0  0  0
 22 23  1  0  0  0
 22 24  1  0  0  0
 22100  1  0  0  0
 23 30  1  0  0  0
 24 25  1  0  0  0
 24101  1  0  0  0
 24102  1  0  0  0
 25103  1  0  0  0
 26 27  1  0  0  0
 26 28  1  0  0  0
 26104  1  0  0  0
 27105  1  0  0  0
 28 29  1  0  0  0
 28 30  1  0  0  0
 28106  1  0  0  0
 29107  1  0  0  0
 30 31  1  0  0  0
 30108  1  0  0  0
 31 32  2  0  0  0
 31 33  1  0  0  0
 32 35  1  0  0  0
 32109  1  0  0  0
 33 34  2  0  0  0
 34 35  1  0  0  0
 35 36  1  0  0  0
 36 37  1  0  0  0
 36 41  1  0  0  0
 36110  1  0  0  0
 37 38  1  0  0  0
 37 39  1  0  0  0
 37111  1  0  0  0
 38 45  1  0  0  0
 39 40  1  0  0  0
 39112  1  0  0  0
 39113  1  0  0  0
 40114  1  0  0  0
 41 42  1  0  0  0
 41 43  1  0  0  0
 41115  1  0  0  0
 42116  1  0  0  0
 43 44  1  0  0  0
 43 45  1  0  0  0
 43117  1  0  0  0
 44118  1  0  0  0
 45 46  1  0  0  0
 45119  1  0  0  0
 46 47  1  0  0  0
 46 48  1  0  0  0
 47 50  2  0  0  0
 47120  1  0  0  0
 48 49  2  0  0  0
 49 50  1  0  0  0
 50 51  1  0  0  0
 51 52  1  0  0  0
 51 56  1  0  0  0
 51121  1  0  0  0
 52 53  1  0  0  0
 52 54  1  0  0  0
 52122  1  0  0  0
 53123  1  0  0  0
 54 55  1  0  0  0
 54 60  1  0  0  0
 54124  1  0  0  0
 55125  1  0  0  0
 56 57  1  0  0  0
 57 58  1  0  0  0
 57 60  1  0  0  0
 57126  1  0  0  0
 58 59  1  0  0  0
 58127  1  0  0  0
 58128  1  0  0  0
 59129  1  0  0  0
 60 61  1  0  0  0
 60130  1  0  0  0
 61 62  1  0  0  0
 61 63  1  0  0  0
 62 65  2  0  0  0
 62131  1  0  0  0
 63 64  2  0  0  0
 64 65  1  0  0  0
 65 66  1  0  0  0
 66 67  1  0  0  0
 66132  1  0  0  0
 66133  1  0  0  0
 67 68  1  0  0  0
 67134  1  0  0  0
 67135  1  0  0  0
 68 69  1  0  0  0
 68136  1  0  0  0
 68137  1  0  0  0
 69 70  1  0  0  0
 70 71  1  0  0  0
 70 79  1  0  0  0
 70138  1  0  0  0
 71 72  1  0  0  0
 72 73  1  0  0  0
 72 75  1  0  0  0
 72139  1  0  0  0
 73 74  1  0  0  0
 73140  1  0  0  0
 73141  1  0  0  0
 74142  1  0  0  0
 75 76  1  0  0  0
 75 77  1  0  0  0
 75143  1  0  0  0
 76144  1  0  0  0
 77 78  1  0  0  0
 77 79  1  0  0  0
 77145  1  0  0  0
 78146  1  0  0  0
 79 80  1  0  0  0
 79147  1  0  0  0
 80148  1  0  0  0
M  END
> <s_m_source_file>
../4yw7_ligand.sdf

> <i_m_source_file_index>
1

> <s_epik_input>
W09IXVtDQEBIXTFbQ0BASF0oW09IXSlbQ0BASF0oW09IXSlbQ0BASF0oW0NIMl1bT0hdKU9bQ0BIXTFPW0NIMl1bQ0gyXVtDSDJdYzJbY0hdbihubjIpW0NAQEhdM1tDQEBIXShbQ0gyXVtPSF0pT1tDQEhdKFtDQEhdKFtPSF0pW0NASF0zW09IXSljNFtjSF1uKG5uNClbQ0BASF01W0NAQEhdKFtDSDJdW09IXSlPW0NASF0oW0NASF0oW09IXSlbQ0BIXTVbT0hdKW42W2NIXWMobm42KVtDQEhdN1tDQEhdKFtPSF0pW0NAQEhdKFtPSF0pW0NAQEhdKFtDQEhdKE83KVtDSDJdW09IXSluOFtjSF1jKG5uOClbQ0gyXVtDSDJdW0NIMl1PW0NAQEhdOU9bQ0BIXShbQ0gyXVtPSF0pW0NASF0oW09IXSlbQ0BIXShbT0hdKVtDQEhdOVtPSF0=

> <s_epik_cmdline>
J2VwaWtfYXBwJywgJy1pbWFlJywgJ2xpZ2FuZF9wcm8ubWFlJywgJy1vbWFlJywgJ2xpZ2FuZF9wcmVwLm1hZScsICctbXMnLCAnMScsICctcGgnLCAnNycsICctcGh0JywgJzAuNScsICctbnQn

> <r_lp_tautomer_probability>
1

> <r_epik_Ionization_Penalty>
  0.0007

> <r_epik_Ionization_Penalty_Charging>
  0.0000

> <r_epik_Ionization_Penalty_Neutral>
  0.0007

> <r_epik_State_Penalty>
 -0.0000

> <r_epik_Charging_Adjusted_Penalty>
0

> <i_epik_Tot_Q>
0

> <i_epik_Tot_abs_Q>
0

> <s_epik_Chemistry_Notes>
This compound contains an acetal/aminal-like group ( X-CH(R)-Y where X, Y are N, S, or O) that may be acid/base labile, releasing an aldehyde.

$$$$
