4ywa_ligand
                    3D
 Schrodinger Suite 2020-3.
136144  0  0  1  0            999 V2000
   21.1020   22.6460   35.2340 C   0  0  2  0  0  0
   21.8070   23.2290   34.0230 C   0  0  1  0  0  0
   20.2610   26.5380   34.3410 C   0  0  0  0  0  0
   21.2980   23.5520   36.4150 C   0  0  1  0  0  0
   21.7170   22.3010   32.8210 C   0  0  0  0  0  0
   21.1820   25.3890   34.7720 C   0  0  1  0  0  0
   18.5750   27.8340   33.5540 N   0  0  0  0  0  0
   20.5990   27.8420   34.5120 C   0  0  0  0  0  0
   20.6860   24.8870   36.1120 C   0  0  2  0  0  0
   19.5940   28.5920   34.0480 N   0  0  0  0  0  0
   20.6830   22.9930   37.5660 O   0  0  0  0  0  0
   21.1630   24.4300   33.7780 O   0  0  0  0  0  0
   18.9720   26.4720   33.7310 N   0  0  0  0  0  0
   21.7270   21.4450   35.6180 N   0  0  0  0  0  0
   21.0980   20.3940   36.2470 C   0  0  0  0  0  0
   22.0710   19.4490   36.4570 C   0  0  0  0  0  0
   23.2870   19.9070   35.9870 N   0  0  0  0  0  0
   23.0750   21.1630   35.4640 N   0  0  0  0  0  0
   21.8600   18.1140   37.1270 C   0  0  0  0  0  0
   22.6530   18.1700   38.3000 O   0  0  0  0  0  0
   21.7140   16.9670   39.9790 O   0  0  0  0  0  0
   22.6440   16.9330   38.9000 C   0  0  2  0  0  0
   22.9100   15.2480   41.1480 C   0  0  2  0  0  0
   21.6040   15.7300   40.5990 C   0  0  1  0  0  0
   23.3920   16.0600   42.2290 O   0  0  0  0  0  0
   25.2410   14.9780   40.6030 O   0  0  0  0  0  0
   24.0210   16.6150   39.4000 C   0  0  1  0  0  0
   24.0010   15.2730   40.0590 C   0  0  2  0  0  0
   20.5420   15.8840   41.7250 C   0  0  0  0  0  0
   24.9490   16.5530   38.2930 O   0  0  0  0  0  0
   19.2900   16.1880   41.1910 O   0  0  0  0  0  0
   21.0720   25.7560   37.1440 O   0  0  0  0  0  0
   20.3940   21.8230   32.6920 O   0  0  0  0  0  0
   19.6600   30.0510   34.0970 C   0  0  1  0  0  0
   20.0080   30.4410   35.4850 C   0  0  1  0  0  0
   20.7450   30.4910   33.1140 C   0  0  2  0  0  0
   21.4950   35.7980   34.6680 C   0  0  0  0  0  0
   20.3520   31.9220   35.5320 C   0  0  2  0  0  0
   21.7290   33.5890   34.4870 N   0  0  0  0  0  0
   22.7800   35.5520   34.2610 N   0  0  0  0  0  0
   22.9160   34.1820   34.1460 N   0  0  0  0  0  0
   21.4220   32.1980   34.4990 C   0  0  2  0  0  0
   20.7990   34.5900   34.8170 C   0  0  0  0  0  0
   20.9400   31.8870   33.2320 O   0  0  0  0  0  0
   20.3810   30.1780   31.7030 C   0  0  0  0  0  0
   18.9200   30.1780   36.3400 O   0  0  0  0  0  0
   20.8200   32.2390   36.8080 O   0  0  0  0  0  0
   18.9570   30.3460   31.4810 O   0  0  0  0  0  0
   21.1650   37.9990   33.8520 O   0  0  0  0  0  0
   20.8560   37.1320   34.9370 C   0  0  2  0  0  0
   21.5100   39.6030   37.5890 O   0  0  0  0  0  0
   20.8950   36.8220   37.3250 O   0  0  0  0  0  0
   20.3660   41.0570   35.6050 N   0  0  0  0  0  0
   21.7560   40.8790   32.8230 O   0  0  0  0  0  0
   21.0560   39.8720   35.2540 C   0  0  2  0  0  0
   20.4480   39.2190   34.0440 C   0  0  1  0  0  0
   20.5560   40.0780   32.7910 C   0  0  0  0  0  0
   21.3720   37.6370   36.2500 C   0  0  2  0  0  0
   20.8460   39.0180   36.4870 C   0  0  1  0  0  0
   19.0220   41.2840   35.4430 N   0  0  0  0  0  0
   18.7680   42.5690   35.9630 N   0  0  0  0  0  0
   19.9680   43.0730   36.4470 C   0  0  0  0  0  0
   20.9630   42.1590   36.2520 C   0  0  0  0  0  0
   20.1500   44.4420   37.1010 C   0  0  0  0  0  0
   19.3860   44.3880   38.2910 O   0  0  0  0  0  0
   20.3230   45.5580   39.9890 O   0  0  0  0  0  0
   20.4290   46.7960   40.5850 C   0  0  1  0  0  0
   19.1180   47.3090   41.1520 C   0  0  1  0  0  0
   18.0640   47.2980   40.0760 C   0  0  1  0  0  0
   18.0060   45.9670   39.4030 C   0  0  2  0  0  0
   19.3870   45.6290   38.9060 C   0  0  2  0  0  0
   17.0870   46.0470   38.3200 O   0  0  0  0  0  0
   16.8220   47.5980   40.6500 O   0  0  0  0  0  0
   18.6460   46.4700   42.2130 O   0  0  0  0  0  0
   22.7160   46.3770   41.1840 O   0  0  0  0  0  0
   21.4410   46.6670   41.7200 C   0  0  0  0  0  0
   20.0481   22.4471   34.9895 H   0  0  0  0  0  0
   22.8688   23.4577   34.1971 H   0  0  0  0  0  0
   22.3649   23.6495   36.6647 H   0  0  0  0  0  0
   21.9980   22.8514   31.9110 H   0  0  0  0  0  0
   22.4014   21.4514   32.9616 H   0  0  0  0  0  0
   22.2551   25.6222   34.8355 H   0  0  0  0  0  0
   21.5259   28.2120   34.9502 H   0  0  0  0  0  0
   19.5863   24.8605   36.1157 H   0  0  0  0  0  0
   21.0058   22.0100   37.9394 H   0  0  0  0  0  0
   20.0453   20.3265   36.5214 H   0  0  0  0  0  0
   20.7929   17.9860   37.3614 H   0  0  0  0  0  0
   22.1862   17.3092   36.4518 H   0  0  0  0  0  0
   22.2957   16.2052   38.1523 H   0  0  0  0  0  0
   22.7083   14.2518   41.5687 H   0  0  0  0  0  0
   21.3330   15.0341   39.7913 H   0  0  0  0  0  0
   22.7782   16.1947   43.1318 H   0  0  0  0  0  0
   25.3989   14.0237   41.1268 H   0  0  0  0  0  0
   24.3613   17.4030   40.0879 H   0  0  0  0  0  0
   23.8703   14.4824   39.3055 H   0  0  0  0  0  0
   20.4664   14.9426   42.2890 H   0  0  0  0  0  0
   20.8428   16.6952   42.4043 H   0  0  0  0  0  0
   25.1178   17.4412   37.6664 H   0  0  0  0  0  0
   18.4270   16.3294   41.8583 H   0  0  0  0  0  0
   20.7899   25.5345   38.1839 H   0  0  0  0  0  0
   20.1352   21.1346   31.8740 H   0  0  0  0  0  0
   18.6876   30.4985   33.8438 H   0  0  0  0  0  0
   20.8341   29.8146   35.8527 H   0  0  0  0  0  0
   21.7010   30.0008   33.3503 H   0  0  0  0  0  0
   19.4769   32.5728   35.3884 H   0  0  0  0  0  0
   22.3336   31.6093   34.6791 H   0  0  0  0  0  0
   19.7613   34.4561   35.1226 H   0  0  0  0  0  0
   20.9246   30.8532   31.0257 H   0  0  0  0  0  0
   20.6516   29.1360   31.4770 H   0  0  0  0  0  0
   18.5303   29.1537   36.4351 H   0  0  0  0  0  0
   20.1686   32.0990   37.6833 H   0  0  0  0  0  0
   18.5288   30.1526   30.4864 H   0  0  0  0  0  0
   19.7568   37.1035   34.9678 H   0  0  0  0  0  0
   21.2504   40.6228   37.9095 H   0  0  0  0  0  0
   21.1574   35.7545   37.3642 H   0  0  0  0  0  0
   21.9859   41.5587   31.9893 H   0  0  0  0  0  0
   22.1014   40.0952   34.9947 H   0  0  0  0  0  0
   19.3838   39.0022   34.2185 H   0  0  0  0  0  0
   19.6768   40.7368   32.7350 H   0  0  0  0  0  0
   20.5778   39.4199   31.9098 H   0  0  0  0  0  0
   22.4711   37.5929   36.2507 H   0  0  0  0  0  0
   19.7830   38.9740   36.7664 H   0  0  0  0  0  0
   22.0096   42.2605   36.5389 H   0  0  0  0  0  0
   21.2166   44.6086   37.3121 H   0  0  0  0  0  0
   19.7843   45.2250   36.4205 H   0  0  0  0  0  0
   20.7352   47.4417   39.7488 H   0  0  0  0  0  0
   19.2759   48.3102   41.5795 H   0  0  0  0  0  0
   18.2527   48.0806   39.3264 H   0  0  0  0  0  0
   17.6242   45.1791   40.0690 H   0  0  0  0  0  0
   19.7273   46.3721   38.1698 H   0  0  0  0  0  0
   16.0306   46.2862   38.5116 H   0  0  0  0  0  0
   16.6804   48.5455   41.1906 H   0  0  0  0  0  0
   19.2589   46.3269   43.1152 H   0  0  0  0  0  0
   23.5782   46.2479   41.8548 H   0  0  0  0  0  0
   21.4855   47.6123   42.2808 H   0  0  0  0  0  0
   21.1336   45.8545   42.3948 H   0  0  0  0  0  0
  1  2  1  0  0  0
  1  4  1  0  0  0
  1 14  1  0  0  0
  1 77  1  0  0  0
  2  5  1  0  0  0
  2 12  1  0  0  0
  2 78  1  0  0  0
  3  6  1  0  0  0
  3  8  2  0  0  0
  3 13  1  0  0  0
  4  9  1  0  0  0
  4 11  1  0  0  0
  4 79  1  0  0  0
  5 33  1  0  0  0
  5 80  1  0  0  0
  5 81  1  0  0  0
  6  9  1  0  0  0
  6 12  1  0  0  0
  6 82  1  0  0  0
  7 10  1  0  0  0
  7 13  2  0  0  0
  8 10  1  0  0  0
  8 83  1  0  0  0
  9 32  1  0  0  0
  9 84  1  0  0  0
 10 34  1  0  0  0
 11 85  1  0  0  0
 14 15  1  0  0  0
 14 18  1  0  0  0
 15 16  2  0  0  0
 15 86  1  0  0  0
 16 17  1  0  0  0
 16 19  1  0  0  0
 17 18  2  0  0  0
 19 20  1  0  0  0
 19 87  1  0  0  0
 19 88  1  0  0  0
 20 22  1  0  0  0
 21 22  1  0  0  0
 21 24  1  0  0  0
 22 27  1  0  0  0
 22 89  1  0  0  0
 23 24  1  0  0  0
 23 25  1  0  0  0
 23 28  1  0  0  0
 23 90  1  0  0  0
 24 29  1  0  0  0
 24 91  1  0  0  0
 25 92  1  0  0  0
 26 28  1  0  0  0
 26 93  1  0  0  0
 27 28  1  0  0  0
 27 30  1  0  0  0
 27 94  1  0  0  0
 28 95  1  0  0  0
 29 31  1  0  0  0
 29 96  1  0  0  0
 29 97  1  0  0  0
 30 98  1  0  0  0
 31 99  1  0  0  0
 32100  1  0  0  0
 33101  1  0  0  0
 34 35  1  0  0  0
 34 36  1  0  0  0
 34102  1  0  0  0
 35 38  1  0  0  0
 35 46  1  0  0  0
 35103  1  0  0  0
 36 44  1  0  0  0
 36 45  1  0  0  0
 36104  1  0  0  0
 37 40  1  0  0  0
 37 43  2  0  0  0
 37 50  1  0  0  0
 38 42  1  0  0  0
 38 47  1  0  0  0
 38105  1  0  0  0
 39 41  1  0  0  0
 39 42  1  0  0  0
 39 43  1  0  0  0
 40 41  2  0  0  0
 42 44  1  0  0  0
 42106  1  0  0  0
 43107  1  0  0  0
 45 48  1  0  0  0
 45108  1  0  0  0
 45109  1  0  0  0
 46110  1  0  0  0
 47111  1  0  0  0
 48112  1  0  0  0
 49 50  1  0  0  0
 49 56  1  0  0  0
 50 58  1  0  0  0
 50113  1  0  0  0
 51 59  1  0  0  0
 51114  1  0  0  0
 52 58  1  0  0  0
 52115  1  0  0  0
 53 55  1  0  0  0
 53 60  1  0  0  0
 53 63  1  0  0  0
 54 57  1  0  0  0
 54116  1  0  0  0
 55 56  1  0  0  0
 55 59  1  0  0  0
 55117  1  0  0  0
 56 57  1  0  0  0
 56118  1  0  0  0
 57119  1  0  0  0
 57120  1  0  0  0
 58 59  1  0  0  0
 58121  1  0  0  0
 59122  1  0  0  0
 60 61  2  0  0  0
 61 62  1  0  0  0
 62 63  2  0  0  0
 62 64  1  0  0  0
 63123  1  0  0  0
 64 65  1  0  0  0
 64124  1  0  0  0
 64125  1  0  0  0
 65 71  1  0  0  0
 66 67  1  0  0  0
 66 71  1  0  0  0
 67 68  1  0  0  0
 67 76  1  0  0  0
 67126  1  0  0  0
 68 69  1  0  0  0
 68 74  1  0  0  0
 68127  1  0  0  0
 69 70  1  0  0  0
 69 73  1  0  0  0
 69128  1  0  0  0
 70 71  1  0  0  0
 70 72  1  0  0  0
 70129  1  0  0  0
 71130  1  0  0  0
 72131  1  0  0  0
 73132  1  0  0  0
 74133  1  0  0  0
 75 76  1  0  0  0
 75134  1  0  0  0
 76135  1  0  0  0
 76136  1  0  0  0
M  END
> <s_m_source_file>
../4ywa_ligand.sdf

> <i_m_source_file_index>
1

> <s_epik_input>
W09IXVtDQEBIXTFbQ0BASF0oW09IXSlbQ0BASF0oW09IXSlbQ0BASF0oW0NIMl1bT0hdKU9bQ0BIXTFPW0NIMl1jKG5uMilbY0hdbjJbQ0BASF0zW0NAQEhdKFtDSDJdW09IXSlPW0NASF0oW0NASF0oW09IXSlbQ0BIXTNbT0hdKWM0W2NIXW4obm40KVtDQEhdNVtDQEhdKFtPSF0pW0NAQEhdKFtPSF0pW0NAQEhdKE9bQ0BASF01W0NIMl1bT0hdKW4oW2NIXTYpbm5jNltDQEBIXTdPW0NASF0oW0NIMl1bT0hdKVtDQEhdKFtDQEhdKFtPSF0pW0NASF03W09IXSluOG5uYyhbY0hdOClbQ0gyXU9bQ0BIXShPW0NAQEhdOVtDSDJdW09IXSlbQ0BIXShbT0hdKVtDQEBIXShbT0hdKVtDQEhdOVtPSF0=

> <s_epik_cmdline>
J2VwaWtfYXBwJywgJy1pbWFlJywgJ2xpZ2FuZF9wcm8ubWFlJywgJy1vbWFlJywgJ2xpZ2FuZF9wcmVwLm1hZScsICctbXMnLCAnMScsICctcGgnLCAnNycsICctcGh0JywgJzAuNScsICctbnQn

> <r_lp_tautomer_probability>
1

> <r_epik_Ionization_Penalty>
  0.0009

> <r_epik_Ionization_Penalty_Charging>
  0.0000

> <r_epik_Ionization_Penalty_Neutral>
  0.0009

> <r_epik_State_Penalty>
 -0.0000

> <r_epik_Charging_Adjusted_Penalty>
0

> <i_epik_Tot_Q>
0

> <i_epik_Tot_abs_Q>
0

> <s_epik_Chemistry_Notes>
This compound contains an acetal/aminal-like group ( X-CH(R)-Y where X, Y are N, S, or O) that may be acid/base labile, releasing an aldehyde.

$$$$
