4yx9_ligand
                    3D
 Schrodinger Suite 2020-3.
 29 30  0  0  1  0            999 V2000
  -23.3610   28.1500   34.8590 C   0  0  0  0  0  0
  -22.2150   25.7150   30.6170 C   0  0  0  0  0  0
  -23.4570   26.7770   34.7040 C   0  0  0  0  0  0
  -22.3390   24.9210   29.4850 C   0  0  0  0  0  0
  -23.4260   26.2350   33.4340 C   0  0  0  0  0  0
  -21.2740   24.2090   28.9570 C   0  0  0  0  0  0
  -23.2930   27.0260   32.3190 C   0  0  0  0  0  0
  -20.0540   24.2840   29.5800 C   0  0  0  0  0  0
  -23.2190   28.4240   32.4850 C   0  0  0  0  0  0
  -19.9120   25.0660   30.7180 C   0  0  0  0  0  0
  -23.2510   28.9680   33.7510 C   0  0  0  0  0  0
  -20.9890   25.7680   31.2470 C   0  0  0  0  0  0
  -23.4100   28.7760   36.2510 C   0  0  0  0  0  0
  -24.7450   29.4300   36.5250 C   0  0  0  0  0  0
  -23.5470   24.0830   33.1670 I   0  0  0  0  0  0
  -21.5730   23.0510   27.2680 I   0  0  0  0  0  0
  -23.0300   29.7830   30.8470 I   0  0  0  0  0  0
  -25.0540   30.5290   35.9150 O   0  5  0  0  0  0
  -23.2970   26.3970   31.0660 O   0  0  0  0  0  0
  -18.9690   23.5710   29.0860 O   0  0  0  0  0  0
  -25.5730   28.8820   37.3380 O   0  0  0  0  0  0
  -23.5561   26.1304   35.5759 H   0  0  0  0  0  0
  -23.3097   24.8553   28.9935 H   0  0  0  0  0  0
  -18.9392   25.1308   31.2053 H   0  0  0  0  0  0
  -23.1892   30.0487   33.8787 H   0  0  0  0  0  0
  -20.8652   26.3576   32.1554 H   0  0  0  0  0  0
  -23.2448   27.9967   37.0095 H   0  0  0  0  0  0
  -22.6257   29.5426   36.3361 H   0  0  0  0  0  0
  -19.0825   22.9516   28.1841 H   0  0  0  0  0  0
  1  3  2  0  0  0
  1 11  1  0  0  0
  1 13  1  0  0  0
  2  4  2  0  0  0
  2 12  1  0  0  0
  2 19  1  0  0  0
  3  5  1  0  0  0
  3 22  1  0  0  0
  4  6  1  0  0  0
  4 23  1  0  0  0
  5  7  2  0  0  0
  5 15  1  0  0  0
  6  8  2  0  0  0
  6 16  1  0  0  0
  7  9  1  0  0  0
  7 19  1  0  0  0
  8 10  1  0  0  0
  8 20  1  0  0  0
  9 11  2  0  0  0
  9 17  1  0  0  0
 10 12  2  0  0  0
 10 24  1  0  0  0
 11 25  1  0  0  0
 12 26  1  0  0  0
 13 14  1  0  0  0
 13 27  1  0  0  0
 13 28  1  0  0  0
 14 18  1  0  0  0
 14 21  2  0  0  0
 20 29  1  0  0  0
M  CHG  1  18  -1
M  END
> <s_m_source_file>
../4yx9_ligand.sdf

> <i_m_source_file_index>
1

> <s_epik_input>
W09IXUMoPU8pW0NIMl1jMVtjSF1jKEkpYyhjKEkpW2NIXTEpT2MyW2NIXWMoSSljKFtPSF0pW2NIXVtjSF0y

> <s_epik_cmdline>
J2VwaWtfYXBwJywgJy1pbWFlJywgJ2xpZ2FuZF9wcm8ubWFlJywgJy1vbWFlJywgJ2xpZ2FuZF9wcmVwLm1hZScsICctbXMnLCAnMScsICctcGgnLCAnNycsICctcGh0JywgJzAuNScsICctbnQn

> <r_lp_tautomer_probability>
1

> <r_epik_Ionization_Penalty>
  0.1130

> <r_epik_Ionization_Penalty_Charging>
  0.0003

> <r_epik_Ionization_Penalty_Neutral>
  0.1127

> <r_epik_State_Penalty>
  0.1024

> <r_epik_Charging_Adjusted_Penalty>
0.102726817600857

> <i_epik_Tot_Q>
-1

> <i_epik_Tot_abs_Q>
1

$$$$
