4yy6_ligand
                    3D
 Schrodinger Suite 2020-3.
152151  0  0  1  0            999 V2000
  -40.0140   -4.4290    5.3150 N   0  3  0  0  0  0
  -39.5870   -5.3210    4.2140 C   0  0  0  0  0  0
  -38.1300   -5.4460    4.0440 C   0  0  0  0  0  0
  -37.6450   -6.2910    3.2530 O   0  0  0  0  0  0
  -37.3820   -4.7110    4.8850 N   0  0  0  0  0  0
  -35.8950   -4.8370    4.9490 C   0  0  2  0  0  0
  -35.5640   -6.1520    5.6700 C   0  0  0  0  0  0
  -35.8880   -6.3100    6.8460 O   0  0  0  0  0  0
  -35.2020   -3.6240    5.6500 C   0  0  0  0  0  0
  -33.8130   -3.3950    5.1220 C   0  0  0  0  0  0
  -33.2000   -2.2430    5.8910 C   0  0  0  0  0  0
  -31.7760   -2.1550    5.6100 N   0  0  0  0  0  0
  -31.1090   -1.0140    5.6080 C   0  0  0  0  0  0
  -31.8070    0.1570    5.8000 N   0  0  0  0  0  0
  -29.7870   -1.0550    5.3700 N   0  0  0  0  0  0
  -35.0430   -7.1220    4.9280 N   0  0  0  0  0  0
  -34.6920   -8.3960    5.5060 C   0  0  0  0  0  0
  -35.0430   -9.5340    4.6150 C   0  0  0  0  0  0
  -35.9030   -9.3650    3.6950 O   0  0  0  0  0  0
  -35.9710  -12.5130    4.1160 C   0  0  0  0  0  0
  -34.5110  -10.7110    4.9250 N   0  0  0  0  0  0
  -36.6400  -12.4020    5.1760 O   0  0  0  0  0  0
  -34.5440  -11.8670    4.0110 C   0  0  1  0  0  0
  -33.4750  -12.8670    4.3900 C   0  0  0  0  0  0
  -31.6330  -11.8560    3.0500 C   0  0  0  0  0  0
  -30.2550  -11.3290    3.1370 C   0  0  0  0  0  0
  -32.0410  -12.3370    4.3600 C   0  0  0  0  0  0
  -29.1500  -12.2750    2.9730 N   0  0  0  0  0  0
  -26.1610  -13.2450    4.9180 C   0  0  0  0  0  0
  -27.5840  -10.6590    3.2030 O   0  0  0  0  0  0
  -25.7270  -13.0240    3.5040 C   0  0  0  0  0  0
  -26.9430  -12.9270    2.6770 C   0  0  0  0  0  0
  -27.9460  -11.8060    3.0260 C   0  0  0  0  0  0
  -36.3950  -13.2110    3.0290 N   0  0  0  0  0  0
  -37.7060  -13.8320    2.8710 C   0  0  0  0  0  0
  -37.9410  -14.8630    3.9830 C   0  0  0  0  0  0
  -39.0850  -14.9900    4.4620 O   0  0  0  0  0  0
  -36.8820  -15.6250    4.3370 N   0  0  0  0  0  0
  -36.8550  -16.4830    5.5570 C   0  0  0  0  0  0
  -35.9660  -15.9340    6.6710 C   0  0  0  0  0  0
  -35.0060  -15.1020    6.4880 O   0  0  0  0  0  0
  -34.2320  -16.6490    9.2550 C   0  0  0  0  0  0
  -36.2800  -16.4180    7.8750 N   0  0  0  0  0  0
  -33.4490  -16.2390   10.1280 O   0  0  0  0  0  0
  -35.5550  -15.8910    9.0460 C   0  0  1  0  0  0
  -36.5080  -15.6480   10.2430 C   0  0  0  0  0  0
  -38.5290  -14.0570   10.7130 C   0  0  0  0  0  0
  -38.8980  -12.5610   10.7330 C   0  0  0  0  0  0
  -37.2220  -14.3120    9.9480 C   0  0  0  0  0  0
  -40.0250  -12.1420    9.8830 N   0  0  0  0  0  0
  -43.1290   -8.6830    9.7420 C   0  0  0  0  0  0
  -40.1750  -10.0220   10.6480 O   0  0  0  0  0  0
  -43.0070  -10.1830    9.6350 C   0  0  0  0  0  0
  -41.7400  -10.6500    8.9540 C   0  0  0  0  0  0
  -40.5840  -10.9090    9.9040 C   0  0  0  0  0  0
  -33.9450  -17.6910    8.4400 N   0  0  0  0  0  0
  -32.6750  -18.4100    8.4640 C   0  0  0  0  0  0
  -32.5790  -19.1910    9.7750 C   0  0  0  0  0  0
  -31.4910  -19.3080   10.3580 O   0  0  0  0  0  0
  -33.7140  -19.7240   10.2440 N   0  0  0  0  0  0
  -33.6980  -20.6120   11.4350 C   0  0  2  0  0  0
  -33.8440  -22.1270   11.0920 C   0  0  0  0  0  0
  -34.6030  -22.8750   11.7540 O   0  0  0  0  0  0
  -34.7150  -20.1250   12.5110 C   0  0  0  0  0  0
  -34.5820  -18.6720   13.0650 C   0  0  0  0  0  0
  -35.7650  -18.3370   13.9670 C   0  0  0  0  0  0
  -33.2470  -18.4020   13.7770 C   0  0  0  0  0  0
  -33.1120  -22.5620   10.0550 N   0  0  0  0  0  0
  -33.0800  -23.9690    9.6370 C   0  0  0  0  0  0
  -32.1030  -24.6730   10.5740 C   0  0  0  0  0  0
  -31.2370  -25.4680   10.1630 O   0  0  0  0  0  0
  -32.1120  -24.4950   11.8070 O   0  0  0  0  0  0
  -41.1128   -4.4023    5.3601 H   0  0  0  0  0  0
  -39.6297   -3.4142    5.1347 H   0  0  0  0  0  0
  -39.6169   -4.8075    6.2685 H   0  0  0  0  0  0
  -39.9713   -6.3358    4.3943 H   0  0  0  0  0  0
  -39.9841   -4.9426    3.2605 H   0  0  0  0  0  0
  -37.9022   -3.9974    5.5409 H   0  0  0  0  0  0
  -35.5401   -4.8554    3.9080 H   0  0  0  0  0  0
  -35.7931   -2.7129    5.4753 H   0  0  0  0  0  0
  -35.1339   -3.8152    6.7311 H   0  0  0  0  0  0
  -33.2126   -4.3059    5.2624 H   0  0  0  0  0  0
  -33.8636   -3.1507    4.0507 H   0  0  0  0  0  0
  -33.6855   -1.3025    5.5913 H   0  0  0  0  0  0
  -33.3455   -2.4033    6.9695 H   0  0  0  0  0  0
  -31.2024   -3.0663    5.3852 H   0  0  0  0  0  0
  -32.8898    0.1268    5.9913 H   0  0  0  0  0  0
  -31.2819    1.1228    5.7622 H   0  0  0  0  0  0
  -29.2841   -2.0224    5.2245 H   0  0  0  0  0  0
  -34.8802   -6.9411    3.8553 H   0  0  0  0  0  0
  -33.6081   -8.4287    5.6905 H   0  0  0  0  0  0
  -35.2299   -8.5282    6.4564 H   0  0  0  0  0  0
  -34.0312  -10.8027    5.9106 H   0  0  0  0  0  0
  -34.3083  -11.5116    2.9970 H   0  0  0  0  0  0
  -33.6535  -13.2237    5.4151 H   0  0  0  0  0  0
  -33.5066  -13.7188    3.6947 H   0  0  0  0  0  0
  -32.3118  -11.0551    2.7216 H   0  0  0  0  0  0
  -31.6642  -12.6831    2.3255 H   0  0  0  0  0  0
  -30.1025  -10.5705    2.3551 H   0  0  0  0  0  0
  -30.0986  -10.8729    4.1257 H   0  0  0  0  0  0
  -31.9452  -11.4984    5.0654 H   0  0  0  0  0  0
  -31.3471  -13.1402    4.6489 H   0  0  0  0  0  0
  -29.3595  -13.3427    2.8114 H   0  0  0  0  0  0
  -25.2752  -13.3224    5.5656 H   0  0  0  0  0  0
  -26.7440  -14.1756    4.9814 H   0  0  0  0  0  0
  -26.7830  -12.3995    5.2470 H   0  0  0  0  0  0
  -25.1440  -12.0934    3.4406 H   0  0  0  0  0  0
  -25.1050  -13.8695    3.1749 H   0  0  0  0  0  0
  -26.6603  -12.7522    1.6284 H   0  0  0  0  0  0
  -27.5130  -13.8648    2.7516 H   0  0  0  0  0  0
  -35.6495  -13.2875    2.2237 H   0  0  0  0  0  0
  -38.4868  -13.0591    2.9256 H   0  0  0  0  0  0
  -37.7574  -14.3368    1.8950 H   0  0  0  0  0  0
  -36.0080  -15.5897    3.6700 H   0  0  0  0  0  0
  -37.8729  -16.5739    5.9639 H   0  0  0  0  0  0
  -36.4744  -17.4812    5.2949 H   0  0  0  0  0  0
  -37.0544  -17.1878    8.0083 H   0  0  0  0  0  0
  -35.2081  -14.8727    8.8163 H   0  0  0  0  0  0
  -37.2270  -16.4775   10.3135 H   0  0  0  0  0  0
  -35.9222  -15.5906   11.1723 H   0  0  0  0  0  0
  -38.4011  -14.4169   11.7446 H   0  0  0  0  0  0
  -39.3326  -14.6264   10.2230 H   0  0  0  0  0  0
  -39.1718  -12.2645   11.7563 H   0  0  0  0  0  0
  -38.0358  -11.9661   10.3972 H   0  0  0  0  0  0
  -36.5543  -13.4755   10.2019 H   0  0  0  0  0  0
  -37.4815  -14.2629    8.8802 H   0  0  0  0  0  0
  -40.4696  -12.8518    9.1699 H   0  0  0  0  0  0
  -44.0724   -8.4269   10.2464 H   0  0  0  0  0  0
  -43.1204   -8.2416    8.7345 H   0  0  0  0  0  0
  -42.2832   -8.2869   10.3231 H   0  0  0  0  0  0
  -43.0156  -10.6244   10.6425 H   0  0  0  0  0  0
  -43.8528  -10.5792    9.0539 H   0  0  0  0  0  0
  -41.9365  -11.5912    8.4196 H   0  0  0  0  0  0
  -41.4051   -9.8849    8.2381 H   0  0  0  0  0  0
  -34.7322  -17.9887    7.7317 H   0  0  0  0  0  0
  -32.6303  -19.1037    7.6115 H   0  0  0  0  0  0
  -31.8453  -17.6911    8.3956 H   0  0  0  0  0  0
  -34.6647  -19.4988    9.7386 H   0  0  0  0  0  0
  -32.6789  -20.4910   11.8309 H   0  0  0  0  0  0
  -35.7345  -20.1747   12.1010 H   0  0  0  0  0  0
  -34.6454  -20.7695   13.3997 H   0  0  0  0  0  0
  -34.5974  -17.9849   12.2061 H   0  0  0  0  0  0
  -36.7038  -18.5401   13.4310 H   0  0  0  0  0  0
  -35.7243  -17.2736   14.2453 H   0  0  0  0  0  0
  -35.7202  -18.9557   14.8754 H   0  0  0  0  0  0
  -32.4147  -18.6525   13.1028 H   0  0  0  0  0  0
  -33.1834  -19.0212   14.6839 H   0  0  0  0  0  0
  -33.1875  -17.3391   14.0538 H   0  0  0  0  0  0
  -32.5187  -21.8128    9.5103 H   0  0  0  0  0  0
  -34.0885  -24.3999    9.7224 H   0  0  0  0  0  0
  -32.7409  -24.0336    8.5926 H   0  0  0  0  0  0
  -31.3884  -25.0242   12.4444 H   0  0  0  0  0  0
  1  2  1  0  0  0
  1 73  1  0  0  0
  1 74  1  0  0  0
  1 75  1  0  0  0
  2  3  1  0  0  0
  2 76  1  0  0  0
  2 77  1  0  0  0
  3  4  2  0  0  0
  3  5  1  0  0  0
  5  6  1  0  0  0
  5 78  1  0  0  0
  6  7  1  0  0  0
  6  9  1  0  0  0
  6 79  1  0  0  0
  7  8  2  0  0  0
  7 16  1  0  0  0
  9 10  1  0  0  0
  9 80  1  0  0  0
  9 81  1  0  0  0
 10 11  1  0  0  0
 10 82  1  0  0  0
 10 83  1  0  0  0
 11 12  1  0  0  0
 11 84  1  0  0  0
 11 85  1  0  0  0
 12 13  1  0  0  0
 12 86  1  0  0  0
 13 14  1  0  0  0
 13 15  2  0  0  0
 14 87  1  0  0  0
 14 88  1  0  0  0
 15 89  1  0  0  0
 16 17  1  0  0  0
 16 90  1  0  0  0
 17 18  1  0  0  0
 17 91  1  0  0  0
 17 92  1  0  0  0
 18 19  2  0  0  0
 18 21  1  0  0  0
 20 22  2  0  0  0
 20 23  1  0  0  0
 20 34  1  0  0  0
 21 23  1  0  0  0
 21 93  1  0  0  0
 23 24  1  0  0  0
 23 94  1  0  0  0
 24 27  1  0  0  0
 24 95  1  0  0  0
 24 96  1  0  0  0
 25 26  1  0  0  0
 25 27  1  0  0  0
 25 97  1  0  0  0
 25 98  1  0  0  0
 26 28  1  0  0  0
 26 99  1  0  0  0
 26100  1  0  0  0
 27101  1  0  0  0
 27102  1  0  0  0
 28 33  1  0  0  0
 28103  1  0  0  0
 29 31  1  0  0  0
 29104  1  0  0  0
 29105  1  0  0  0
 29106  1  0  0  0
 30 33  2  0  0  0
 31 32  1  0  0  0
 31107  1  0  0  0
 31108  1  0  0  0
 32 33  1  0  0  0
 32109  1  0  0  0
 32110  1  0  0  0
 34 35  1  0  0  0
 34111  1  0  0  0
 35 36  1  0  0  0
 35112  1  0  0  0
 35113  1  0  0  0
 36 37  2  0  0  0
 36 38  1  0  0  0
 38 39  1  0  0  0
 38114  1  0  0  0
 39 40  1  0  0  0
 39115  1  0  0  0
 39116  1  0  0  0
 40 41  2  0  0  0
 40 43  1  0  0  0
 42 44  2  0  0  0
 42 45  1  0  0  0
 42 56  1  0  0  0
 43 45  1  0  0  0
 43117  1  0  0  0
 45 46  1  0  0  0
 45118  1  0  0  0
 46 49  1  0  0  0
 46119  1  0  0  0
 46120  1  0  0  0
 47 48  1  0  0  0
 47 49  1  0  0  0
 47121  1  0  0  0
 47122  1  0  0  0
 48 50  1  0  0  0
 48123  1  0  0  0
 48124  1  0  0  0
 49125  1  0  0  0
 49126  1  0  0  0
 50 55  1  0  0  0
 50127  1  0  0  0
 51 53  1  0  0  0
 51128  1  0  0  0
 51129  1  0  0  0
 51130  1  0  0  0
 52 55  2  0  0  0
 53 54  1  0  0  0
 53131  1  0  0  0
 53132  1  0  0  0
 54 55  1  0  0  0
 54133  1  0  0  0
 54134  1  0  0  0
 56 57  1  0  0  0
 56135  1  0  0  0
 57 58  1  0  0  0
 57136  1  0  0  0
 57137  1  0  0  0
 58 59  2  0  0  0
 58 60  1  0  0  0
 60 61  1  0  0  0
 60138  1  0  0  0
 61 62  1  0  0  0
 61 64  1  0  0  0
 61139  1  0  0  0
 62 63  2  0  0  0
 62 68  1  0  0  0
 64 65  1  0  0  0
 64140  1  0  0  0
 64141  1  0  0  0
 65 66  1  0  0  0
 65 67  1  0  0  0
 65142  1  0  0  0
 66143  1  0  0  0
 66144  1  0  0  0
 66145  1  0  0  0
 67146  1  0  0  0
 67147  1  0  0  0
 67148  1  0  0  0
 68 69  1  0  0  0
 68149  1  0  0  0
 69 70  1  0  0  0
 69150  1  0  0  0
 69151  1  0  0  0
 70 71  2  0  0  0
 70 72  1  0  0  0
 72152  1  0  0  0
M  CHG  1   1   1
M  END
> <s_m_source_file>
../4yy6_ligand.sdf

> <i_m_source_file_index>
1

> <s_epik_input>
W0hdL049QyhbTkgyXSlcW05IXVtDSDJdW0NIMl1bQ0gyXVtDQEhdKFtOSF1DKD1PKVtDSDJdW05IMytdKUMoPU8pW05IXVtDSDJdQyg9TylbTkhdW0NAQEhdKFtDSDJdW0NIMl1bQ0gyXVtDSDJdW05IXUMoPU8pW0NIMl1bQ0gyXVtDSDNdKUMoPU8pW05IXVtDSDJdQyg9TylbTkhdW0NIMl1DKD1PKVtOSF1bQ0BASF0oW0NIMl1bQ0gyXVtDSDJdW0NIMl1bTkhdQyg9TylbQ0gyXVtDSDJdW0NIM10pQyg9TylbTkhdW0NIMl1DKD1PKVtOSF1bQ0BASF0oW0NIMl1bQ0hdKFtDSDNdKVtDSDNdKUMoPU8pW05IXVtDSDJdQyg9TylbT0hd

> <s_epik_cmdline>
J2VwaWtfYXBwJywgJy1pbWFlJywgJ2xpZ2FuZF9wcm8ubWFlJywgJy1vbWFlJywgJ2xpZ2FuZF9wcmVwLm1hZScsICctbXMnLCAnMScsICctcGgnLCAnNycsICctcGh0JywgJzAuNScsICctbnQn

> <s_epik_pKa_notes>
Molecule size exceeds maximum supported for generating protonation states

> <s_epik_Chemistry_Notes>
This compound has an imine and may undergo hydrolysis.

$$$$
