4yyi_ligand
                    3D
 Schrodinger Suite 2020-3.
 83 82  0  0  1  0            999 V2000
   45.6510  -22.7130  -19.5510 N   0  3  0  0  0  0
   46.7650  -23.1150  -20.4910 C   0  0  0  0  0  0
   48.0900  -22.3980  -20.1500 C   0  0  0  0  0  0
   49.1570  -22.9510  -20.3770 O   0  0  0  0  0  0
   53.2190  -14.6290  -22.2860 O   0  0  0  0  0  0
   52.1720  -14.5500  -22.7850 C   0  0  0  0  0  0
   52.2720  -13.6400  -24.0400 C   0  0  0  0  0  0
   51.1210  -15.2350  -22.5510 N   0  0  0  0  0  0
   51.1680  -16.1510  -21.3280 C   0  0  0  0  0  0
   49.9020  -16.9050  -21.3090 C   0  0  0  0  0  0
   50.0490  -18.0600  -20.2390 C   0  0  0  0  0  0
   48.7580  -18.8790  -20.0570 C   0  0  0  0  0  0
   49.0990  -20.2330  -19.3590 C   0  0  2  0  0  0
   47.9690  -21.1790  -19.5840 N   0  0  0  0  0  0
   49.3680  -19.9990  -17.8830 C   0  0  0  0  0  0
   48.4040  -20.0100  -17.0700 O   0  0  0  0  0  0
   50.6370  -19.7660  -17.5140 N   0  0  0  0  0  0
   51.1410  -19.6380  -16.0570 C   0  0  0  0  0  0
   51.2980  -20.8910  -15.1790 C   0  0  0  0  0  0
   51.2800  -22.0800  -15.6810 O   0  0  0  0  0  0
   51.4340  -20.5120  -13.9120 N   0  0  0  0  0  0
   51.5630  -21.4740  -12.7890 C   0  0  0  0  0  0
   50.3430  -21.2330  -11.9500 C   0  0  0  0  0  0
   49.2620  -21.1920  -12.5010 O   0  0  0  0  0  0
   53.2590  -26.2000   -5.9790 O   0  0  0  0  0  0
   52.2380  -25.9910   -5.2820 C   0  0  0  0  0  0
   52.1670  -26.4400   -3.7130 C   0  0  0  0  0  0
   51.0840  -25.4610   -5.4940 N   0  0  0  0  0  0
   50.6160  -24.9320   -6.8650 C   0  0  0  0  0  0
   50.3010  -23.4470   -6.7930 C   0  0  0  0  0  0
   50.0360  -22.9820   -8.2670 C   0  0  0  0  0  0
   49.6920  -21.4930   -8.3550 C   0  0  0  0  0  0
   49.2430  -21.0290   -9.7520 C   0  0  2  0  0  0
   50.4760  -21.0530  -10.6120 N   0  0  0  0  0  0
   48.8740  -19.6010   -9.5480 C   0  0  0  0  0  0
   49.4260  -18.7440  -10.1940 O   0  0  0  0  0  0
   47.9390  -19.2780   -8.6520 N   0  0  0  0  0  0
   47.9860  -17.9320   -8.0370 C   0  0  0  0  0  0
   46.6620  -17.3600   -7.5490 C   0  0  0  0  0  0
   45.8550  -16.8420   -8.3190 O   0  5  0  0  0  0
   46.3390  -17.3900   -6.3630 O   0  0  0  0  0  0
   44.7283  -23.2443  -19.8275 H   0  0  0  0  0  0
   45.4848  -21.6280  -19.6223 H   0  0  0  0  0  0
   45.9295  -22.9743  -18.5194 H   0  0  0  0  0  0
   46.9312  -24.2000  -20.4197 H   0  0  0  0  0  0
   46.4865  -22.8537  -21.5226 H   0  0  0  0  0  0
   53.2523  -13.1411  -24.0540 H   0  0  0  0  0  0
   51.4753  -12.8822  -24.0078 H   0  0  0  0  0  0
   52.1592  -14.2523  -24.9468 H   0  0  0  0  0  0
   50.2145  -15.1937  -23.1728 H   0  0  0  0  0  0
   52.0266  -16.8332  -21.4137 H   0  0  0  0  0  0
   51.2727  -15.5423  -20.4178 H   0  0  0  0  0  0
   49.0776  -16.2305  -21.0342 H   0  0  0  0  0  0
   49.7123  -17.3284  -22.3064 H   0  0  0  0  0  0
   50.8428  -18.7531  -20.5544 H   0  0  0  0  0  0
   50.3089  -17.6246  -19.2628 H   0  0  0  0  0  0
   48.0492  -18.3127  -19.4350 H   0  0  0  0  0  0
   48.3067  -19.0756  -21.0407 H   0  0  0  0  0  0
   49.9981  -20.7132  -19.7726 H   0  0  0  0  0  0
   46.9492  -20.8997  -19.2807 H   0  0  0  0  0  0
   51.3433  -19.6645  -18.3512 H   0  0  0  0  0  0
   52.1443  -19.1871  -16.0544 H   0  0  0  0  0  0
   50.4510  -19.0003  -15.4850 H   0  0  0  0  0  0
   51.4486  -19.4301  -13.7138 H   0  0  0  0  0  0
   51.5930  -22.4994  -13.1862 H   0  0  0  0  0  0
   52.4906  -21.2683  -12.2346 H   0  0  0  0  0  0
   53.1176  -26.9116   -3.4232 H   0  0  0  0  0  0
   51.3445  -27.1570   -3.5737 H   0  0  0  0  0  0
   51.9911  -25.5537   -3.0856 H   0  0  0  0  0  0
   50.4158  -25.3971   -4.6226 H   0  0  0  0  0  0
   51.4103  -25.0898   -7.6095 H   0  0  0  0  0  0
   49.7094  -25.4716   -7.1762 H   0  0  0  0  0  0
   49.4124  -23.2908   -6.1637 H   0  0  0  0  0  0
   51.1574  -22.9112   -6.3577 H   0  0  0  0  0  0
   50.9354  -23.1597   -8.8748 H   0  0  0  0  0  0
   49.1926  -23.5512   -8.6850 H   0  0  0  0  0  0
   48.8702  -21.2649   -7.6603 H   0  0  0  0  0  0
   50.5758  -20.8959   -8.0860 H   0  0  0  0  0  0
   48.4301  -21.6110  -10.2108 H   0  0  0  0  0  0
   51.4682  -20.9256  -10.1545 H   0  0  0  0  0  0
   47.1460  -19.9853   -8.3675 H   0  0  0  0  0  0
   48.6458  -17.9537   -7.1571 H   0  0  0  0  0  0
   48.3741  -17.2080   -8.7685 H   0  0  0  0  0  0
  1  2  1  0  0  0
  1 42  1  0  0  0
  1 43  1  0  0  0
  1 44  1  0  0  0
  2  3  1  0  0  0
  2 45  1  0  0  0
  2 46  1  0  0  0
  3  4  2  0  0  0
  3 14  1  0  0  0
  5  6  2  0  0  0
  6  7  1  0  0  0
  6  8  1  0  0  0
  7 47  1  0  0  0
  7 48  1  0  0  0
  7 49  1  0  0  0
  8  9  1  0  0  0
  8 50  1  0  0  0
  9 10  1  0  0  0
  9 51  1  0  0  0
  9 52  1  0  0  0
 10 11  1  0  0  0
 10 53  1  0  0  0
 10 54  1  0  0  0
 11 12  1  0  0  0
 11 55  1  0  0  0
 11 56  1  0  0  0
 12 13  1  0  0  0
 12 57  1  0  0  0
 12 58  1  0  0  0
 13 14  1  0  0  0
 13 15  1  0  0  0
 13 59  1  0  0  0
 14 60  1  0  0  0
 15 16  2  0  0  0
 15 17  1  0  0  0
 17 18  1  0  0  0
 17 61  1  0  0  0
 18 19  1  0  0  0
 18 62  1  0  0  0
 18 63  1  0  0  0
 19 20  2  0  0  0
 19 21  1  0  0  0
 21 22  1  0  0  0
 21 64  1  0  0  0
 22 23  1  0  0  0
 22 65  1  0  0  0
 22 66  1  0  0  0
 23 24  2  0  0  0
 23 34  1  0  0  0
 25 26  2  0  0  0
 26 27  1  0  0  0
 26 28  1  0  0  0
 27 67  1  0  0  0
 27 68  1  0  0  0
 27 69  1  0  0  0
 28 29  1  0  0  0
 28 70  1  0  0  0
 29 30  1  0  0  0
 29 71  1  0  0  0
 29 72  1  0  0  0
 30 31  1  0  0  0
 30 73  1  0  0  0
 30 74  1  0  0  0
 31 32  1  0  0  0
 31 75  1  0  0  0
 31 76  1  0  0  0
 32 33  1  0  0  0
 32 77  1  0  0  0
 32 78  1  0  0  0
 33 34  1  0  0  0
 33 35  1  0  0  0
 33 79  1  0  0  0
 34 80  1  0  0  0
 35 36  2  0  0  0
 35 37  1  0  0  0
 37 38  1  0  0  0
 37 81  1  0  0  0
 38 39  1  0  0  0
 38 82  1  0  0  0
 38 83  1  0  0  0
 39 40  1  0  0  0
 39 41  2  0  0  0
M  CHG  2   1   1  40  -1
M  END
> <s_m_source_file>
../4yyi_ligand.sdf

> <i_m_source_file_index>
1

> <s_epik_input>
Tz1DKFtDSDNdKVtOSF1bQ0gyXVtDSDJdW0NIMl1bQ0gyXVtDQEhdKFtOSF1DKD1PKVtDSDJdW05IMytdKUMoPU8pW05IXVtDSDJdQyg9TylbTkhdW0NIMl1DKD1PKVtOSF1bQ0BIXShDKD1PKVtOSF1bQ0gyXUMoPU8pW09IXSlbQ0gyXVtDSDJdW0NIMl1bQ0gyXVtOSF1DKD1PKVtDSDNd

> <s_epik_cmdline>
J2VwaWtfYXBwJywgJy1pbWFlJywgJ2xpZ2FuZF9wcm8ubWFlJywgJy1vbWFlJywgJ2xpZ2FuZF9wcmVwLm1hZScsICctbXMnLCAnMScsICctcGgnLCAnNycsICctcGh0JywgJzAuNScsICctbnQn

> <r_epik_Ionization_Penalty>
  0.1222

> <r_epik_Ionization_Penalty_Charging>
  0.1222

> <r_epik_Ionization_Penalty_Neutral>
  0.0000

> <r_epik_State_Penalty>
  0.1115

> <r_epik_Charging_Adjusted_Penalty>
0.233743875637917

> <i_epik_Tot_Q>
0

> <i_epik_Tot_abs_Q>
2

$$$$
