4yyl_ligand
                    3D
 Schrodinger Suite 2020-3.
 30 31  0  0  1  0            999 V2000
  -35.9980    3.7930   15.7100 C   0  0  0  0  0  0
  -37.2240    3.1680   15.4680 C   0  0  0  0  0  0
  -37.5500    1.9090   15.9740 C   0  0  0  0  0  0
  -38.9680    1.2530   15.7150 F   0  0  0  0  0  0
  -36.5970    1.2380   16.7190 C   0  0  0  0  0  0
  -35.3690    1.8500   16.9410 C   0  0  0  0  0  0
  -35.0130    3.0990   16.4060 C   0  0  0  0  0  0
  -33.7750    3.6830   16.6530 O   0  0  0  0  0  0
  -32.8110    2.8440   17.3730 C   0  0  0  0  0  0
  -32.5010    1.6950   16.3570 C   0  0  0  0  0  0
  -32.7440    1.9060   15.1640 O   0  0  0  0  0  0
  -31.8160    0.5200   16.7360 C   0  0  0  0  0  0
  -31.0410    0.3890   17.9000 C   0  0  0  0  0  0
  -30.3440   -0.8010   18.1760 C   0  0  0  0  0  0
  -30.4130   -1.8730   17.2510 C   0  0  0  0  0  0
  -29.7710   -3.0800   17.3790 O   0  0  0  0  0  0
  -31.1270   -1.7280   16.0800 C   0  0  0  0  0  0
  -31.1680   -2.7690   15.2100 O   0  0  0  0  0  0
  -31.7820   -0.5320   15.8070 C   0  0  0  0  0  0
  -32.5360   -0.4420   14.6810 O   0  5  0  0  0  0
  -35.8159    4.8087   15.3589 H   0  0  0  0  0  0
  -37.9603    3.6882   14.8553 H   0  0  0  0  0  0
  -36.8052    0.2478   17.1244 H   0  0  0  0  0  0
  -34.6413    1.3316   17.5654 H   0  0  0  0  0  0
  -31.9189    3.4388   17.6187 H   0  0  0  0  0  0
  -33.2701    2.4714   18.3006 H   0  0  0  0  0  0
  -30.9788    1.2222   18.6000 H   0  0  0  0  0  0
  -29.7580   -0.8978   19.0899 H   0  0  0  0  0  0
  -29.1745   -3.2930   18.2783 H   0  0  0  0  0  0
  -30.6420   -3.7054   15.4476 H   0  0  0  0  0  0
  1  2  2  0  0  0
  1  7  1  0  0  0
  1 21  1  0  0  0
  2  3  1  0  0  0
  2 22  1  0  0  0
  3  4  1  0  0  0
  3  5  2  0  0  0
  5  6  1  0  0  0
  5 23  1  0  0  0
  6  7  2  0  0  0
  6 24  1  0  0  0
  7  8  1  0  0  0
  8  9  1  0  0  0
  9 10  1  0  0  0
  9 25  1  0  0  0
  9 26  1  0  0  0
 10 11  2  0  0  0
 10 12  1  0  0  0
 12 13  2  0  0  0
 12 19  1  0  0  0
 13 14  1  0  0  0
 13 27  1  0  0  0
 14 15  2  0  0  0
 14 28  1  0  0  0
 15 16  1  0  0  0
 15 17  1  0  0  0
 16 29  1  0  0  0
 17 18  1  0  0  0
 17 19  2  0  0  0
 18 30  1  0  0  0
 19 20  1  0  0  0
M  CHG  1  20  -1
M  END
> <s_m_source_file>
../4yyl_ligand.sdf

> <i_m_source_file_index>
1

> <s_epik_input>
RmMxW2NIXVtjSF1jKFtjSF1bY0hdMSlPW0NIMl1DKD1PKWMyW2NIXVtjSF1jKFtPSF0pYyhbT0hdKWMyW09IXQ==

> <s_epik_cmdline>
J2VwaWtfYXBwJywgJy1pbWFlJywgJ2xpZ2FuZF9wcm8ubWFlJywgJy1vbWFlJywgJ2xpZ2FuZF9wcmVwLm1hZScsICctbXMnLCAnMScsICctcGgnLCAnNycsICctcGh0JywgJzAuNScsICctbnQn

> <r_lp_tautomer_probability>
1

> <r_epik_Ionization_Penalty>
  0.1666

> <r_epik_Ionization_Penalty_Charging>
  0.1639

> <r_epik_Ionization_Penalty_Neutral>
  0.0027

> <r_epik_State_Penalty>
 -0.0000

> <r_epik_Charging_Adjusted_Penalty>
0.163877544892237

> <i_epik_Tot_Q>
-1

> <i_epik_Tot_abs_Q>
1

$$$$
