4yym_ligand
                    3D
 Schrodinger Suite 2020-3.
114113  0  0  1  0            999 V2000
   -2.1700   40.2360    7.7090 C   0  0  0  0  0  0
   -4.1390   40.7740    9.0560 N   0  3  0  0  0  0
   -2.5110   40.9500    6.7200 O   0  0  0  0  0  0
   -3.2050   39.6600    8.6460 C   0  0  1  0  0  0
   -3.9930   38.5240    8.0160 C   0  0  0  0  0  0
   -3.7510   36.3800    6.9640 C   0  0  0  0  0  0
   -3.0290   35.0840    6.8270 C   0  0  0  0  0  0
   -3.3860   37.1300    8.2130 C   0  0  0  0  0  0
   -3.4270   34.2880    5.7480 N   0  0  0  0  0  0
   -6.4200   32.5260    4.9280 C   0  0  0  0  0  0
   -3.6430   32.3440    6.9110 O   0  0  0  0  0  0
   -5.3390   31.4950    4.7090 C   0  0  0  0  0  0
   -4.0500   32.2080    4.6220 C   0  0  0  0  0  0
   -3.6590   32.9720    5.8730 C   0  0  0  0  0  0
   -0.8860   40.0110    8.0250 N   0  0  0  0  0  0
    0.2250   40.5050    7.1720 C   0  0  0  0  0  0
    0.2430   42.0280    7.0450 C   0  0  0  0  0  0
    0.0860   42.7200    8.0540 O   0  0  0  0  0  0
    0.4510   42.5320    5.8200 N   0  0  0  0  0  0
    0.4760   43.9710    5.5270 C   0  0  0  0  0  0
   -0.8570   44.7200    5.5670 C   0  0  0  0  0  0
   -0.9080   45.9550    5.3780 O   0  0  0  0  0  0
   -3.4740   45.5150    7.1250 C   0  0  0  0  0  0
   -1.9490   44.0110    5.8270 N   0  0  0  0  0  0
   -3.1800   45.0530    8.2420 O   0  0  0  0  0  0
   -3.2870   44.6720    5.8650 C   0  0  1  0  0  0
   -4.3600   43.5660    5.7150 C   0  0  0  0  0  0
   -6.2270   44.1390    4.1580 C   0  0  0  0  0  0
   -7.7000   44.5170    4.1650 C   0  0  0  0  0  0
   -5.7760   44.1150    5.6080 C   0  0  0  0  0  0
   -8.1990   44.4470    2.8040 N   0  0  0  0  0  0
   -6.5490   44.2490   -0.4120 C   0  0  0  0  0  0
   -7.5800   46.5600    2.1510 O   0  0  0  0  0  0
   -7.7670   45.1170   -0.6120 C   0  0  0  0  0  0
   -8.7250   45.1950    0.5470 C   0  0  0  0  0  0
   -8.0970   45.4550    1.9030 C   0  0  0  0  0  0
   -3.9850   46.7440    6.9590 N   0  0  0  0  0  0
   -4.2800   47.6720    8.0750 C   0  0  0  0  0  0
   -3.1040   48.5460    8.4680 C   0  0  0  0  0  0
   -3.2090   49.3110    9.4210 O   0  0  0  0  0  0
   -2.0190   48.4480    7.7040 N   0  0  0  0  0  0
   -0.7640   49.1930    7.9870 C   0  0  2  0  0  0
   -0.7210   50.7160    7.7040 C   0  0  0  0  0  0
    0.3550   51.3390    7.7670 O   0  0  0  0  0  0
    0.4440   48.4880    7.3440 C   0  0  0  0  0  0
    1.0040   47.3250    8.1840 C   0  0  0  0  0  0
    2.3870   46.8700    7.6980 C   0  0  0  0  0  0
    1.0010   47.7100    9.6640 C   0  0  0  0  0  0
   -1.8840   51.3200    7.4700 N   0  0  0  0  0  0
   -1.9420   52.7120    7.0390 C   0  0  0  0  0  0
   -2.9640   53.4940    7.8170 C   0  0  0  0  0  0
   -2.6960   54.6070    8.2500 O   0  0  0  0  0  0
   -4.0760   53.0270    8.0260 O   0  5  0  0  0  0
   -3.5586   41.5905    9.5105 H   0  0  0  0  0  0
   -4.8676   40.3916    9.7860 H   0  0  0  0  0  0
   -4.6709   41.1512    8.1701 H   0  0  0  0  0  0
   -2.6857   39.2412    9.5206 H   0  0  0  0  0  0
   -5.0029   38.4931    8.4508 H   0  0  0  0  0  0
   -4.0660   38.6862    6.9305 H   0  0  0  0  0  0
   -3.5114   37.0256    6.1062 H   0  0  0  0  0  0
   -4.8349   36.1947    6.9920 H   0  0  0  0  0  0
   -1.9541   35.2755    6.6932 H   0  0  0  0  0  0
   -3.1839   34.4804    7.7334 H   0  0  0  0  0  0
   -2.2963   37.2184    8.3344 H   0  0  0  0  0  0
   -3.8185   36.6653    9.1114 H   0  0  0  0  0  0
   -3.5604   34.7373    4.7528 H   0  0  0  0  0  0
   -7.3965   32.0243    4.9974 H   0  0  0  0  0  0
   -6.4296   33.2320    4.0846 H   0  0  0  0  0  0
   -6.2215   33.0727    5.8616 H   0  0  0  0  0  0
   -5.3294   30.7890    5.5524 H   0  0  0  0  0  0
   -5.5375   30.9482    3.7754 H   0  0  0  0  0  0
   -3.2438   31.4855    4.4272 H   0  0  0  0  0  0
   -4.0911   32.9412    3.8030 H   0  0  0  0  0  0
   -0.6655   39.4449    8.9420 H   0  0  0  0  0  0
    1.1867   40.1929    7.6054 H   0  0  0  0  0  0
    0.1252   40.0849    6.1603 H   0  0  0  0  0  0
    0.6083   41.8032    5.0112 H   0  0  0  0  0  0
    1.1204   44.4827    6.2570 H   0  0  0  0  0  0
    0.8710   44.1320    4.5131 H   0  0  0  0  0  0
   -1.8638   42.9305    6.0150 H   0  0  0  0  0  0
   -3.3475   45.3891    5.0331 H   0  0  0  0  0  0
   -4.1602   42.9824    4.8042 H   0  0  0  0  0  0
   -4.3266   42.9015    6.5909 H   0  0  0  0  0  0
   -6.1046   43.1494    3.6936 H   0  0  0  0  0  0
   -5.6594   44.8861    3.5839 H   0  0  0  0  0  0
   -8.2554   43.8159    4.8053 H   0  0  0  0  0  0
   -7.8144   45.5391    4.5550 H   0  0  0  0  0  0
   -6.4612   43.4770    6.1855 H   0  0  0  0  0  0
   -5.8034   45.1392    6.0084 H   0  0  0  0  0  0
   -8.6970   43.5334    2.4471 H   0  0  0  0  0  0
   -5.9294   44.2716   -1.3206 H   0  0  0  0  0  0
   -6.8649   43.2150   -0.2093 H   0  0  0  0  0  0
   -5.9648   44.6276    0.4397 H   0  0  0  0  0  0
   -7.4511   46.1510   -0.8147 H   0  0  0  0  0  0
   -8.3512   44.7384   -1.4637 H   0  0  0  0  0  0
   -9.4406   46.0129    0.3768 H   0  0  0  0  0  0
   -9.2700   44.2437    0.6369 H   0  0  0  0  0  0
   -4.1852   47.0501    5.9216 H   0  0  0  0  0  0
   -5.1039   48.3415    7.7871 H   0  0  0  0  0  0
   -4.5708   47.0946    8.9650 H   0  0  0  0  0  0
   -2.0777   47.7809    6.8314 H   0  0  0  0  0  0
   -0.7604   49.1267    9.0850 H   0  0  0  0  0  0
    0.1502   48.0742    6.3681 H   0  0  0  0  0  0
    1.2598   49.2125    7.2044 H   0  0  0  0  0  0
    0.3480   46.4506    8.0608 H   0  0  0  0  0  0
    2.3323   46.6061    6.6315 H   0  0  0  0  0  0
    2.7085   45.9917    8.2771 H   0  0  0  0  0  0
    3.1113   47.6861    7.8371 H   0  0  0  0  0  0
   -0.0104   48.0269    9.9584 H   0  0  0  0  0  0
    1.7070   48.5372    9.8291 H   0  0  0  0  0  0
    1.3042   46.8428   10.2690 H   0  0  0  0  0  0
   -2.8133   50.7477    7.6078 H   0  0  0  0  0  0
   -0.9593   53.1832    7.1880 H   0  0  0  0  0  0
   -2.2115   52.7550    5.9734 H   0  0  0  0  0  0
  1  3  2  0  0  0
  1  4  1  0  0  0
  1 15  1  0  0  0
  2  4  1  0  0  0
  2 54  1  0  0  0
  2 55  1  0  0  0
  2 56  1  0  0  0
  4  5  1  0  0  0
  4 57  1  0  0  0
  5  8  1  0  0  0
  5 58  1  0  0  0
  5 59  1  0  0  0
  6  7  1  0  0  0
  6  8  1  0  0  0
  6 60  1  0  0  0
  6 61  1  0  0  0
  7  9  1  0  0  0
  7 62  1  0  0  0
  7 63  1  0  0  0
  8 64  1  0  0  0
  8 65  1  0  0  0
  9 14  1  0  0  0
  9 66  1  0  0  0
 10 12  1  0  0  0
 10 67  1  0  0  0
 10 68  1  0  0  0
 10 69  1  0  0  0
 11 14  2  0  0  0
 12 13  1  0  0  0
 12 70  1  0  0  0
 12 71  1  0  0  0
 13 14  1  0  0  0
 13 72  1  0  0  0
 13 73  1  0  0  0
 15 16  1  0  0  0
 15 74  1  0  0  0
 16 17  1  0  0  0
 16 75  1  0  0  0
 16 76  1  0  0  0
 17 18  2  0  0  0
 17 19  1  0  0  0
 19 20  1  0  0  0
 19 77  1  0  0  0
 20 21  1  0  0  0
 20 78  1  0  0  0
 20 79  1  0  0  0
 21 22  2  0  0  0
 21 24  1  0  0  0
 23 25  2  0  0  0
 23 26  1  0  0  0
 23 37  1  0  0  0
 24 26  1  0  0  0
 24 80  1  0  0  0
 26 27  1  0  0  0
 26 81  1  0  0  0
 27 30  1  0  0  0
 27 82  1  0  0  0
 27 83  1  0  0  0
 28 29  1  0  0  0
 28 30  1  0  0  0
 28 84  1  0  0  0
 28 85  1  0  0  0
 29 31  1  0  0  0
 29 86  1  0  0  0
 29 87  1  0  0  0
 30 88  1  0  0  0
 30 89  1  0  0  0
 31 36  1  0  0  0
 31 90  1  0  0  0
 32 34  1  0  0  0
 32 91  1  0  0  0
 32 92  1  0  0  0
 32 93  1  0  0  0
 33 36  2  0  0  0
 34 35  1  0  0  0
 34 94  1  0  0  0
 34 95  1  0  0  0
 35 36  1  0  0  0
 35 96  1  0  0  0
 35 97  1  0  0  0
 37 38  1  0  0  0
 37 98  1  0  0  0
 38 39  1  0  0  0
 38 99  1  0  0  0
 38100  1  0  0  0
 39 40  2  0  0  0
 39 41  1  0  0  0
 41 42  1  0  0  0
 41101  1  0  0  0
 42 43  1  0  0  0
 42 45  1  0  0  0
 42102  1  0  0  0
 43 44  2  0  0  0
 43 49  1  0  0  0
 45 46  1  0  0  0
 45103  1  0  0  0
 45104  1  0  0  0
 46 47  1  0  0  0
 46 48  1  0  0  0
 46105  1  0  0  0
 47106  1  0  0  0
 47107  1  0  0  0
 47108  1  0  0  0
 48109  1  0  0  0
 48110  1  0  0  0
 48111  1  0  0  0
 49 50  1  0  0  0
 49112  1  0  0  0
 50 51  1  0  0  0
 50113  1  0  0  0
 50114  1  0  0  0
 51 52  2  0  0  0
 51 53  1  0  0  0
M  CHG  2   2   1  53  -1
M  END
> <s_m_source_file>
../4yym_ligand.sdf

> <i_m_source_file_index>
1

> <s_epik_input>
W0NIM11bQ0gyXVtDSDJdQyg9TylbTkhdW0NIMl1bQ0gyXVtDSDJdW0NIMl1bQ0BIXShbTkgzK10pQyg9TylbTkhdW0NIMl1DKD1PKVtOSF1bQ0gyXUMoPU8pW05IXVtDQEBIXShbQ0gyXVtDSDJdW0NIMl1bQ0gyXVtOSF1DKD1PKVtDSDJdW0NIMl1bQ0gzXSlDKD1PKVtOSF1bQ0gyXUMoPU8pW05IXVtDQEBIXShbQ0gyXVtDSF0oW0NIM10pW0NIM10pQyg9TylbTkhdW0NIMl1DKD1PKVtPSF0=

> <s_epik_cmdline>
J2VwaWtfYXBwJywgJy1pbWFlJywgJ2xpZ2FuZF9wcm8ubWFlJywgJy1vbWFlJywgJ2xpZ2FuZF9wcmVwLm1hZScsICctbXMnLCAnMScsICctcGgnLCAnNycsICctcGh0JywgJzAuNScsICctbnQn

> <r_epik_Ionization_Penalty>
  0.1063

> <r_epik_Ionization_Penalty_Charging>
  0.1063

> <r_epik_Ionization_Penalty_Neutral>
  0.0000

> <r_epik_State_Penalty>
  0.0960

> <r_epik_Charging_Adjusted_Penalty>
0.20229463241707

> <i_epik_Tot_Q>
0

> <i_epik_Tot_abs_Q>
2

$$$$
