4yyn_ligand
                    3D
 Schrodinger Suite 2020-3.
159158  0  0  1  0            999 V2000
   -0.2680   31.4370   18.3820 N   0  3  0  0  0  0
   -0.6340   32.0550   17.1130 C   0  0  2  0  0  0
    0.5990   32.8510   16.6150 C   0  0  0  0  0  0
    1.5240   33.0880   17.3760 O   0  0  0  0  0  0
   -1.8930   32.9500   17.3180 C   0  0  0  0  0  0
   -1.6660   34.0800   18.1690 O   0  0  0  0  0  0
    0.6580   33.1850   15.3320 N   0  0  0  0  0  0
    1.7090   34.1030   14.8340 C   0  0  0  0  0  0
    1.3000   35.5800   14.9990 C   0  0  0  0  0  0
    0.3880   35.9170   15.7820 O   0  0  0  0  0  0
    1.9990   36.4680   14.2650 N   0  0  0  0  0  0
    1.8520   37.9300   14.4470 C   0  0  2  0  0  0
    0.5110   38.3550   13.9970 C   0  0  0  0  0  0
   -0.0530   39.2860   14.5830 O   0  0  0  0  0  0
    2.8860   38.6680   13.6110 C   0  0  0  0  0  0
    4.2870   38.3520   14.1460 C   0  0  0  0  0  0
    5.3970   38.9530   13.2850 C   0  0  0  0  0  0
    6.6820   38.3980   13.6510 N   0  0  0  0  0  0
    7.7880   38.4000   12.8630 C   0  0  0  0  0  0
    7.8170   38.9970   11.6450 N   0  0  0  0  0  0
    8.8940   37.8230   13.3360 N   0  0  0  0  0  0
   -0.0300   37.6590   12.9900 N   0  0  0  0  0  0
   -1.4120   37.8970   12.5320 C   0  0  0  0  0  0
   -1.4620   38.4210   11.1050 C   0  0  0  0  0  0
   -0.5420   39.1300   10.6290 O   0  0  0  0  0  0
   -2.5050   38.0660   10.3690 N   0  0  0  0  0  0
   -2.6190   38.4860    8.9670 C   0  0  1  0  0  0
   -3.3670   37.4730    8.1050 C   0  0  0  0  0  0
   -2.8580   36.0030    8.2550 C   0  0  0  0  0  0
   -3.2470   35.1280    7.0560 C   0  0  0  0  0  0
   -4.7060   34.5920    7.2130 C   0  0  0  0  0  0
   -4.9220   33.8050    6.0310 N   0  0  0  0  0  0
   -4.8760   32.4470    6.0560 C   0  0  0  0  0  0
   -4.6910   31.8510    7.1340 O   0  0  0  0  0  0
   -4.9870   31.8390    4.6990 C   0  0  0  0  0  0
   -4.6990   30.4980    4.5900 C   0  0  0  0  0  0
   -4.7430   30.0000    3.1800 C   0  0  0  0  0  0
   -3.4880   39.7800    8.8890 C   0  0  0  0  0  0
   -3.7770   40.2580    7.7840 O   0  0  0  0  0  0
   -3.9490   40.2810   10.0310 N   0  0  0  0  0  0
   -4.8860   41.4400   10.1150 C   0  0  0  0  0  0
   -6.2870   41.1000    9.6240 C   0  0  0  0  0  0
   -6.5350   39.9790    9.1990 O   0  0  0  0  0  0
   -7.2170   42.0520    9.6280 N   0  0  0  0  0  0
   -8.5860   41.7500    9.1800 C   0  0  0  0  0  0
   -8.7560   41.5030    7.6870 C   0  0  0  0  0  0
   -9.6650   40.7880    7.2500 O   0  0  0  0  0  0
   -7.8650   42.0620    6.8820 N   0  0  0  0  0  0
   -8.0590   42.0440    5.4440 C   0  0  1  0  0  0
   -7.6600   43.4170    4.9160 C   0  0  0  0  0  0
   -8.7580   44.4610    5.2270 C   0  0  0  0  0  0
   -8.3050   45.9010    4.8650 C   0  0  0  0  0  0
   -7.9890   46.0740    3.3810 C   0  0  0  0  0  0
   -9.2080   45.8790    2.6070 N   0  0  0  0  0  0
   -9.9100   46.9220    2.1290 C   0  0  0  0  0  0
   -9.5120   48.0830    2.2790 O   0  0  0  0  0  0
  -11.1510   46.5040    1.3600 C   0  0  0  0  0  0
  -11.8890   47.2070    0.5350 C   0  0  0  0  0  0
  -13.0810   46.6370   -0.1910 C   0  0  0  0  0  0
   -7.1890   41.0050    4.7870 C   0  0  0  0  0  0
   -7.2490   40.8300    3.5570 O   0  0  0  0  0  0
   -6.3640   40.2960    5.5640 N   0  0  0  0  0  0
   -5.6810   39.1150    4.9890 C   0  0  0  0  0  0
   -4.2120   39.2080    4.5440 C   0  0  0  0  0  0
   -3.5600   38.1850    4.4280 O   0  0  0  0  0  0
   -3.7100   40.4190    4.2700 N   0  0  0  0  0  0
   -2.3410   40.6920    3.8040 C   0  0  2  0  0  0
   -1.5890   41.5530    4.8120 C   0  0  0  0  0  0
   -0.8010   42.3840    4.3940 O   0  0  0  0  0  0
   -2.3650   41.3310    2.3970 C   0  0  0  0  0  0
   -3.1310   40.4700    1.3230 C   0  0  0  0  0  0
   -3.2320   41.2510    0.0240 C   0  0  0  0  0  0
   -2.2540   39.2830    0.9720 C   0  0  0  0  0  0
   -1.8070   41.3300    6.1090 N   0  0  0  0  0  0
   -1.1370   42.0730    7.1840 C   0  0  0  0  0  0
   -1.8820   43.3120    7.6770 C   0  0  0  0  0  0
   -2.9740   43.6330    7.1390 O   0  0  0  0  0  0
   -1.3940   43.9960    8.6150 O   0  0  0  0  0  0
    0.6207   30.8047   18.2391 H   0  0  0  0  0  0
   -1.1033   30.8192   18.7433 H   0  0  0  0  0  0
   -0.0453   32.2209   19.1208 H   0  0  0  0  0  0
   -0.8850   31.2627   16.3924 H   0  0  0  0  0  0
   -2.2306   33.3363   16.3450 H   0  0  0  0  0  0
   -2.6966   32.3534   17.7744 H   0  0  0  0  0  0
   -2.4864   34.7807   18.3834 H   0  0  0  0  0  0
   -0.0860   32.7712   14.6354 H   0  0  0  0  0  0
    2.6388   33.9360   15.3976 H   0  0  0  0  0  0
    1.8881   33.9104   13.7659 H   0  0  0  0  0  0
    2.6968   36.0750   13.5109 H   0  0  0  0  0  0
    1.9688   38.1483   15.5188 H   0  0  0  0  0  0
    2.8096   38.3432   12.5628 H   0  0  0  0  0  0
    2.7030   39.7509   13.6735 H   0  0  0  0  0  0
    4.3917   38.7590   15.1626 H   0  0  0  0  0  0
    4.4329   37.2620   14.1707 H   0  0  0  0  0  0
    5.2010   38.7298   12.2259 H   0  0  0  0  0  0
    5.4249   40.0429   13.4310 H   0  0  0  0  0  0
    6.8176   37.9278   14.6362 H   0  0  0  0  0  0
    6.9108   39.4757   11.2454 H   0  0  0  0  0  0
    8.7467   39.0023   11.0571 H   0  0  0  0  0  0
    8.8816   37.3361   14.3223 H   0  0  0  0  0  0
    0.5871   36.8911   12.5006 H   0  0  0  0  0  0
   -1.9783   36.9547   12.5700 H   0  0  0  0  0  0
   -1.8922   38.6399   13.1858 H   0  0  0  0  0  0
   -3.2927   37.4471   10.8235 H   0  0  0  0  0  0
   -1.5716   38.5829    8.6451 H   0  0  0  0  0  0
   -4.4325   37.4747    8.3785 H   0  0  0  0  0  0
   -3.2603   37.7444    7.0444 H   0  0  0  0  0  0
   -1.7610   36.0014    8.3367 H   0  0  0  0  0  0
   -3.2938   35.5546    9.1600 H   0  0  0  0  0  0
   -3.1844   35.7225    6.1326 H   0  0  0  0  0  0
   -2.5594   34.2720    6.9883 H   0  0  0  0  0  0
   -4.7781   33.9881    8.1296 H   0  0  0  0  0  0
   -5.4034   35.4403    7.2770 H   0  0  0  0  0  0
   -5.1316   34.3001    5.0713 H   0  0  0  0  0  0
   -5.2833   32.4121    3.8081 H   0  0  0  0  0  0
   -4.4682   29.9101    5.4906 H   0  0  0  0  0  0
   -4.5047   28.9263    3.1628 H   0  0  0  0  0  0
   -4.0069   30.5488    2.5742 H   0  0  0  0  0  0
   -5.7498   30.1588    2.7663 H   0  0  0  0  0  0
   -3.5993   39.7887   10.9504 H   0  0  0  0  0  0
   -4.9667   41.7712   11.1609 H   0  0  0  0  0  0
   -4.5038   42.2660    9.4973 H   0  0  0  0  0  0
   -6.9605   43.0665    9.9672 H   0  0  0  0  0  0
   -8.9447   40.8407    9.6845 H   0  0  0  0  0  0
   -9.2476   42.5927    9.4291 H   0  0  0  0  0  0
   -6.9730   42.5422    7.3107 H   0  0  0  0  0  0
   -9.1137   41.7902    5.2616 H   0  0  0  0  0  0
   -6.7212   43.7347    5.3933 H   0  0  0  0  0  0
   -7.5177   43.3638    3.8265 H   0  0  0  0  0  0
   -9.6617   44.2272    4.6450 H   0  0  0  0  0  0
   -8.9961   44.4340    6.3006 H   0  0  0  0  0  0
   -9.1045   46.6120    5.1206 H   0  0  0  0  0  0
   -7.3959   46.1526    5.4309 H   0  0  0  0  0  0
   -7.5975   47.0868    3.2051 H   0  0  0  0  0  0
   -7.2358   45.3320    3.0775 H   0  0  0  0  0  0
   -9.5727   44.8616    2.4022 H   0  0  0  0  0  0
  -11.4089   45.4558    1.5717 H   0  0  0  0  0  0
  -11.6488   48.2637    0.3464 H   0  0  0  0  0  0
  -13.5338   47.4167   -0.8211 H   0  0  0  0  0  0
  -13.8209   46.2818    0.5414 H   0  0  0  0  0  0
  -12.7579   45.7966   -0.8230 H   0  0  0  0  0  0
   -6.1885   40.5762    6.6131 H   0  0  0  0  0  0
   -5.6812   38.2971    5.7246 H   0  0  0  0  0  0
   -6.2104   38.7914    4.0807 H   0  0  0  0  0  0
   -4.4157   41.2493    4.4201 H   0  0  0  0  0  0
   -1.8323   39.7182    3.7508 H   0  0  0  0  0  0
   -2.8635   42.3103    2.4475 H   0  0  0  0  0  0
   -1.3342   41.4625    2.0364 H   0  0  0  0  0  0
   -4.1242   40.1769    1.6940 H   0  0  0  0  0  0
   -3.8572   42.1425    0.1799 H   0  0  0  0  0  0
   -3.6856   40.6160   -0.7513 H   0  0  0  0  0  0
   -2.2263   41.5599   -0.2972 H   0  0  0  0  0  0
   -2.1211   38.6496    1.8615 H   0  0  0  0  0  0
   -1.2729   39.6413    0.6270 H   0  0  0  0  0  0
   -2.7322   38.6974    0.1730 H   0  0  0  0  0  0
   -2.5329   40.5411    6.3553 H   0  0  0  0  0  0
   -1.0066   41.4168    8.0571 H   0  0  0  0  0  0
   -0.1527   42.4171    6.8336 H   0  0  0  0  0  0
   -1.9232   44.8899    8.9769 H   0  0  0  0  0  0
  1  2  1  0  0  0
  1 79  1  0  0  0
  1 80  1  0  0  0
  1 81  1  0  0  0
  2  3  1  0  0  0
  2  5  1  0  0  0
  2 82  1  0  0  0
  3  4  2  0  0  0
  3  7  1  0  0  0
  5  6  1  0  0  0
  5 83  1  0  0  0
  5 84  1  0  0  0
  6 85  1  0  0  0
  7  8  1  0  0  0
  7 86  1  0  0  0
  8  9  1  0  0  0
  8 87  1  0  0  0
  8 88  1  0  0  0
  9 10  2  0  0  0
  9 11  1  0  0  0
 11 12  1  0  0  0
 11 89  1  0  0  0
 12 13  1  0  0  0
 12 15  1  0  0  0
 12 90  1  0  0  0
 13 14  2  0  0  0
 13 22  1  0  0  0
 15 16  1  0  0  0
 15 91  1  0  0  0
 15 92  1  0  0  0
 16 17  1  0  0  0
 16 93  1  0  0  0
 16 94  1  0  0  0
 17 18  1  0  0  0
 17 95  1  0  0  0
 17 96  1  0  0  0
 18 19  1  0  0  0
 18 97  1  0  0  0
 19 20  1  0  0  0
 19 21  2  0  0  0
 20 98  1  0  0  0
 20 99  1  0  0  0
 21100  1  0  0  0
 22 23  1  0  0  0
 22101  1  0  0  0
 23 24  1  0  0  0
 23102  1  0  0  0
 23103  1  0  0  0
 24 25  2  0  0  0
 24 26  1  0  0  0
 26 27  1  0  0  0
 26104  1  0  0  0
 27 28  1  0  0  0
 27 38  1  0  0  0
 27105  1  0  0  0
 28 29  1  0  0  0
 28106  1  0  0  0
 28107  1  0  0  0
 29 30  1  0  0  0
 29108  1  0  0  0
 29109  1  0  0  0
 30 31  1  0  0  0
 30110  1  0  0  0
 30111  1  0  0  0
 31 32  1  0  0  0
 31112  1  0  0  0
 31113  1  0  0  0
 32 33  1  0  0  0
 32114  1  0  0  0
 33 34  2  0  0  0
 33 35  1  0  0  0
 35 36  2  0  0  0
 35115  1  0  0  0
 36 37  1  0  0  0
 36116  1  0  0  0
 37117  1  0  0  0
 37118  1  0  0  0
 37119  1  0  0  0
 38 39  2  0  0  0
 38 40  1  0  0  0
 40 41  1  0  0  0
 40120  1  0  0  0
 41 42  1  0  0  0
 41121  1  0  0  0
 41122  1  0  0  0
 42 43  2  0  0  0
 42 44  1  0  0  0
 44 45  1  0  0  0
 44123  1  0  0  0
 45 46  1  0  0  0
 45124  1  0  0  0
 45125  1  0  0  0
 46 47  2  0  0  0
 46 48  1  0  0  0
 48 49  1  0  0  0
 48126  1  0  0  0
 49 50  1  0  0  0
 49 60  1  0  0  0
 49127  1  0  0  0
 50 51  1  0  0  0
 50128  1  0  0  0
 50129  1  0  0  0
 51 52  1  0  0  0
 51130  1  0  0  0
 51131  1  0  0  0
 52 53  1  0  0  0
 52132  1  0  0  0
 52133  1  0  0  0
 53 54  1  0  0  0
 53134  1  0  0  0
 53135  1  0  0  0
 54 55  1  0  0  0
 54136  1  0  0  0
 55 56  2  0  0  0
 55 57  1  0  0  0
 57 58  2  0  0  0
 57137  1  0  0  0
 58 59  1  0  0  0
 58138  1  0  0  0
 59139  1  0  0  0
 59140  1  0  0  0
 59141  1  0  0  0
 60 61  2  0  0  0
 60 62  1  0  0  0
 62 63  1  0  0  0
 62142  1  0  0  0
 63 64  1  0  0  0
 63143  1  0  0  0
 63144  1  0  0  0
 64 65  2  0  0  0
 64 66  1  0  0  0
 66 67  1  0  0  0
 66145  1  0  0  0
 67 68  1  0  0  0
 67 70  1  0  0  0
 67146  1  0  0  0
 68 69  2  0  0  0
 68 74  1  0  0  0
 70 71  1  0  0  0
 70147  1  0  0  0
 70148  1  0  0  0
 71 72  1  0  0  0
 71 73  1  0  0  0
 71149  1  0  0  0
 72150  1  0  0  0
 72151  1  0  0  0
 72152  1  0  0  0
 73153  1  0  0  0
 73154  1  0  0  0
 73155  1  0  0  0
 74 75  1  0  0  0
 74156  1  0  0  0
 75 76  1  0  0  0
 75157  1  0  0  0
 75158  1  0  0  0
 76 77  2  0  0  0
 76 78  1  0  0  0
 78159  1  0  0  0
M  CHG  1   1   1
M  END
> <s_m_source_file>
../4yyn_ligand.sdf

> <i_m_source_file_index>
1

> <s_epik_input>
W09IXVtDSDJdW0NASF0oW05IMytdKUMoPU8pW05IXVtDSDJdQyg9TylbTkhdW0NAQEhdKFtDSDJdW0NIMl1bQ0gyXVtOSF0vQyhbTkgyXSk9TlxbSF0pQyg9TylbTkhdW0NIMl1DKD1PKVtOSF1bQ0BASF0oW0NIMl1bQ0gyXVtDSDJdW0NIMl1bTkhdQyg9TykvW0NIXT1bQ0hdL1tDSDNdKUMoPU8pW05IXVtDSDJdQyg9TylbTkhdW0NIMl1DKD1PKVtOSF1bQ0BASF0oW0NIMl1bQ0gyXVtDSDJdW0NIMl1bTkhdQyg9TykvW0NIXT1bQ0hdL1tDSDNdKUMoPU8pW05IXVtDSDJdQyg9TylbTkhdW0NAQEhdKFtDSDJdW0NIXShbQ0gzXSlbQ0gzXSlDKD1PKVtOSF1bQ0gyXUMoPU8pW09IXQ==

> <s_epik_cmdline>
J2VwaWtfYXBwJywgJy1pbWFlJywgJ2xpZ2FuZF9wcm8ubWFlJywgJy1vbWFlJywgJ2xpZ2FuZF9wcmVwLm1hZScsICctbXMnLCAnMScsICctcGgnLCAnNycsICctcGh0JywgJzAuNScsICctbnQn

> <s_epik_pKa_notes>
Molecule size exceeds maximum supported for generating protonation states

> <s_epik_Chemistry_Notes>
This compound has an imine and may undergo hydrolysis.

$$$$
