4yz5_ligand
                    3D
 Schrodinger Suite 2020-3.
 60 61  0  0  1  0            999 V2000
  -50.7030  -51.9950  -21.9190 O   0  0  0  0  0  0
  -50.0850  -52.7430  -22.6360 C   0  0  0  0  0  0
  -48.5960  -52.6000  -22.7730 C   0  0  0  0  0  0
  -50.7000  -53.7080  -23.3050 N   0  0  0  0  0  0
  -52.1350  -54.0240  -23.1750 C   0  0  1  0  0  0
  -53.0050  -53.5050  -24.3210 C   0  0  1  0  0  0
  -54.3550  -53.9960  -24.2140 O   0  0  0  0  0  0
  -53.0050  -51.9640  -24.4230 C   0  0  2  0  0  0
  -53.7930  -51.3880  -23.3770 O   0  0  0  0  0  0
  -53.3760  -51.4210  -25.8200 C   0  0  2  0  0  0
  -53.6610  -50.0220  -25.8470 O   0  0  0  0  0  0
  -54.5470  -52.0710  -26.4980 C   0  0  0  0  0  0
  -54.0100  -53.1860  -27.2030 O   0  0  0  0  0  0
  -52.2340  -55.5400  -23.1530 C   0  0  1  0  0  0
  -51.4570  -56.0330  -22.0460 O   0  0  0  0  0  0
  -53.6870  -55.9740  -23.0280 C   0  0  0  0  0  0
  -54.5890  -55.4180  -24.1440 C   0  0  2  0  0  0
  -54.2310  -56.1360  -25.4450 C   0  0  0  0  0  0
  -54.0940  -57.3930  -25.4810 O   0  5  0  0  0  0
  -54.0390  -55.4540  -26.4830 O   0  0  0  0  0  0
  -55.9140  -55.5850  -23.5710 O   0  0  0  0  0  0
  -57.2540  -55.8970  -24.0610 C   0  0  1  0  0  0
  -58.2620  -54.9710  -23.3100 C   0  0  2  0  0  0
  -59.6740  -54.9390  -23.9370 C   0  0  2  0  0  0
  -59.5430  -54.7640  -25.3530 O   0  0  0  0  0  0
  -60.6190  -53.8660  -23.3730 C   0  0  0  0  0  0
  -61.9450  -54.0240  -23.9180 O   0  0  0  0  0  0
  -57.7300  -53.6440  -23.1720 O   0  0  0  0  0  0
  -57.4790  -55.9770  -25.5790 C   0  0  1  0  0  0
  -57.0870  -57.2680  -26.0590 O   0  0  0  0  0  0
  -58.9480  -55.9130  -25.9550 C   0  0  2  0  0  0
  -59.0610  -55.8770  -27.3720 O   0  0  0  0  0  0
  -48.2503  -51.7572  -22.1564 H   0  0  0  0  0  0
  -48.3411  -52.4124  -23.8265 H   0  0  0  0  0  0
  -48.1063  -53.5257  -22.4365 H   0  0  0  0  0  0
  -50.0687  -54.2903  -23.9923 H   0  0  0  0  0  0
  -52.4765  -53.5250  -22.2561 H   0  0  0  0  0  0
  -52.6155  -53.9359  -25.2551 H   0  0  0  0  0  0
  -51.9918  -51.5951  -24.2053 H   0  0  0  0  0  0
  -53.6270  -51.6912  -22.3327 H   0  0  0  0  0  0
  -52.4602  -51.5949  -26.4041 H   0  0  0  0  0  0
  -52.9500  -49.3073  -25.4070 H   0  0  0  0  0  0
  -55.2785  -52.3897  -25.7408 H   0  0  0  0  0  0
  -55.0189  -51.3522  -27.1840 H   0  0  0  0  0  0
  -54.6741  -53.8370  -27.7905 H   0  0  0  0  0  0
  -51.8005  -55.9825  -24.0620 H   0  0  0  0  0  0
  -50.3822  -55.8070  -21.9845 H   0  0  0  0  0  0
  -53.7468  -57.0715  -23.0710 H   0  0  0  0  0  0
  -54.0936  -55.6219  -22.0685 H   0  0  0  0  0  0
  -57.3525  -56.9625  -23.8061 H   0  0  0  0  0  0
  -58.3687  -55.3319  -22.2764 H   0  0  0  0  0  0
  -60.1529  -55.9128  -23.7568 H   0  0  0  0  0  0
  -60.6690  -53.9603  -22.2782 H   0  0  0  0  0  0
  -60.2403  -52.8679  -23.6381 H   0  0  0  0  0  0
  -62.7486  -53.3353  -23.6181 H   0  0  0  0  0  0
  -56.7293  -53.4948  -22.7403 H   0  0  0  0  0  0
  -56.8838  -55.1758  -26.0414 H   0  0  0  0  0  0
  -56.0500  -57.6114  -25.9294 H   0  0  0  0  0  0
  -59.5357  -56.7788  -25.6159 H   0  0  0  0  0  0
  -60.0536  -55.8289  -27.8435 H   0  0  0  0  0  0
  1  2  2  0  0  0
  2  3  1  0  0  0
  2  4  1  0  0  0
  3 33  1  0  0  0
  3 34  1  0  0  0
  3 35  1  0  0  0
  4  5  1  0  0  0
  4 36  1  0  0  0
  5  6  1  0  0  0
  5 14  1  0  0  0
  5 37  1  0  0  0
  6  7  1  0  0  0
  6  8  1  0  0  0
  6 38  1  0  0  0
  7 17  1  0  0  0
  8  9  1  0  0  0
  8 10  1  0  0  0
  8 39  1  0  0  0
  9 40  1  0  0  0
 10 11  1  0  0  0
 10 12  1  0  0  0
 10 41  1  0  0  0
 11 42  1  0  0  0
 12 13  1  0  0  0
 12 43  1  0  0  0
 12 44  1  0  0  0
 13 45  1  0  0  0
 14 15  1  0  0  0
 14 16  1  0  0  0
 14 46  1  0  0  0
 15 47  1  0  0  0
 16 17  1  0  0  0
 16 48  1  0  0  0
 16 49  1  0  0  0
 17 18  1  0  0  0
 17 21  1  0  0  0
 18 19  1  0  0  0
 18 20  2  0  0  0
 21 22  1  0  0  0
 22 23  1  0  0  0
 22 29  1  0  0  0
 22 50  1  0  0  0
 23 24  1  0  0  0
 23 28  1  0  0  0
 23 51  1  0  0  0
 24 25  1  0  0  0
 24 26  1  0  0  0
 24 52  1  0  0  0
 25 31  1  0  0  0
 26 27  1  0  0  0
 26 53  1  0  0  0
 26 54  1  0  0  0
 27 55  1  0  0  0
 28 56  1  0  0  0
 29 30  1  0  0  0
 29 31  1  0  0  0
 29 57  1  0  0  0
 30 58  1  0  0  0
 31 32  1  0  0  0
 31 59  1  0  0  0
 32 60  1  0  0  0
M  CHG  1  19  -1
M  END
> <s_m_source_file>
../4yz5_ligand.sdf

> <i_m_source_file_index>
1

> <s_epik_input>
Tz1DKFtDSDNdKVtOSF1bQ0BIXShbQ0BASF0oW09IXSlbQ0gyXTEpW0NASF0oW0NASF0oW09IXSlbQ0BIXShbT0hdKVtDSDJdW09IXSlPW0NAXTEoQyg9TylbT0hdKU9bQ0BIXTJbQ0BASF0oW09IXSlbQ0BASF0oW0NIMl1bT0hdKU9bQ0BASF0oW09IXSlbQ0BASF0yW09IXQ==

> <s_epik_cmdline>
J2VwaWtfYXBwJywgJy1pbWFlJywgJ2xpZ2FuZF9wcm8ubWFlJywgJy1vbWFlJywgJ2xpZ2FuZF9wcmVwLm1hZScsICctbXMnLCAnMScsICctcGgnLCAnNycsICctcGh0JywgJzAuNScsICctbnQn

> <r_lp_tautomer_probability>
1

> <r_epik_Ionization_Penalty>
  0.0000

> <r_epik_Ionization_Penalty_Charging>
  0.0000

> <r_epik_Ionization_Penalty_Neutral>
  0.0000

> <r_epik_State_Penalty>
 -0.0000

> <r_epik_Charging_Adjusted_Penalty>
9.97000173871051e-06

> <i_epik_Tot_Q>
-1

> <i_epik_Tot_abs_Q>
1

> <s_epik_Chemistry_Notes>
This compound contains an acetal/aminal-like group ( X-CH(R)-Y where X, Y are N, S, or O) that may be acid/base labile, releasing an aldehyde.

$$$$
