4yz9_ligand
                    3D
 Schrodinger Suite 2020-3.
 60 63  0  0  1  0            999 V2000
  -72.1360   17.4250  -18.1970 C   0  0  0  0  0  0
  -70.4360   18.9130  -17.3040 C   0  0  0  0  0  0
  -72.8920   18.5340  -18.5940 C   0  0  0  0  0  0
  -71.1920   20.0210  -17.7030 C   0  0  0  0  0  0
  -67.2500   22.9080  -14.5350 C   0  0  0  0  0  0
  -66.8930   21.5550  -14.5080 C   0  0  0  0  0  0
  -67.7600   22.7250  -16.8880 C   0  0  0  0  0  0
  -70.9090   17.6220  -17.5550 C   0  0  0  0  0  0
  -72.4180   19.8310  -18.3510 C   0  0  0  0  0  0
  -67.6890   23.4980  -15.7250 C   0  0  0  0  0  0
  -66.9690   20.7830  -15.6740 C   0  0  0  0  0  0
  -67.4050   21.3730  -16.8630 C   0  0  0  0  0  0
  -73.3730   22.1020  -16.5870 C   0  0  0  0  0  0
  -73.6020   24.3150  -13.5690 C   0  0  0  0  0  0
  -72.2920   25.1180  -13.6870 C   0  0  0  0  0  0
  -71.4120   26.5310  -15.6070 C   0  0  0  0  0  0
  -73.5790   22.9940  -14.3420 C   0  0  0  0  0  0
  -72.6520   24.4510  -16.1400 C   0  0  0  0  0  0
  -69.8910   26.5370  -15.8620 C   0  0  0  0  0  0
  -70.3450   24.3450  -15.1300 C   0  0  0  0  0  0
  -71.6980   25.0980  -15.1160 C   0  0  2  0  0  0
  -70.0900   16.4420  -17.1170 C   0  0  0  0  0  0
  -73.2420   21.0200  -18.7790 C   0  0  0  0  0  0
  -68.0800   24.9640  -15.7510 C   0  0  0  0  0  0
  -73.2090   23.1380  -15.7550 N   0  0  0  0  0  0
  -73.0330   22.1650  -17.8760 N   0  0  0  0  0  0
  -69.5180   25.1260  -16.0550 N   0  3  2  0  0  0
  -73.8660   21.0470  -16.1290 O   0  0  0  0  0  0
  -66.5300   19.1010  -15.6510 Cl  0  0  0  0  0  0
  -67.5120   20.4350  -18.3210 Cl  0  0  0  0  0  0
  -72.5007   16.4155  -18.3867 H   0  0  0  0  0  0
  -69.4808   19.0564  -16.7988 H   0  0  0  0  0  0
  -73.8504   18.3892  -19.0927 H   0  0  0  0  0  0
  -70.8269   21.0297  -17.5096 H   0  0  0  0  0  0
  -67.1857   23.5045  -13.6250 H   0  0  0  0  0  0
  -66.5548   21.1008  -13.5767 H   0  0  0  0  0  0
  -68.0944   23.1796  -17.8205 H   0  0  0  0  0  0
  -73.7912   24.0753  -12.5122 H   0  0  0  0  0  0
  -74.4359   24.9137  -13.9641 H   0  0  0  0  0  0
  -72.4800   26.1678  -13.4177 H   0  0  0  0  0  0
  -71.5393   24.6939  -13.0061 H   0  0  0  0  0  0
  -71.6595   27.2877  -14.8480 H   0  0  0  0  0  0
  -71.9416   26.7634  -16.5427 H   0  0  0  0  0  0
  -72.8481   22.3127  -13.8820 H   0  0  0  0  0  0
  -74.5779   22.5344  -14.3124 H   0  0  0  0  0  0
  -73.5133   25.1141  -16.3086 H   0  0  0  0  0  0
  -72.1190   24.2937  -17.0893 H   0  0  0  0  0  0
  -69.6718   27.1363  -16.7580 H   0  0  0  0  0  0
  -69.3754   26.9734  -14.9938 H   0  0  0  0  0  0
  -69.9259   24.3252  -14.1132 H   0  0  0  0  0  0
  -70.5024   23.3147  -15.4818 H   0  0  0  0  0  0
  -70.6094   15.5125  -17.3931 H   0  0  0  0  0  0
  -69.9531   16.4754  -16.0261 H   0  0  0  0  0  0
  -69.1077   16.4738  -17.6110 H   0  0  0  0  0  0
  -72.9531   21.3188  -19.7975 H   0  0  0  0  0  0
  -74.3086   20.7514  -18.7643 H   0  0  0  0  0  0
  -67.8749   25.4156  -14.7692 H   0  0  0  0  0  0
  -67.4961   25.4856  -16.5237 H   0  0  0  0  0  0
  -72.5889   23.0949  -18.2607 H   0  0  0  0  0  0
  -69.6907   24.7864  -17.0869 H   0  0  0  0  0  0
  1  3  2  0  0  0
  1  8  1  0  0  0
  1 31  1  0  0  0
  2  4  1  0  0  0
  2  8  2  0  0  0
  2 32  1  0  0  0
  3  9  1  0  0  0
  3 33  1  0  0  0
  4  9  2  0  0  0
  4 34  1  0  0  0
  5  6  2  0  0  0
  5 10  1  0  0  0
  5 35  1  0  0  0
  6 11  1  0  0  0
  6 36  1  0  0  0
  7 10  2  0  0  0
  7 12  1  0  0  0
  7 37  1  0  0  0
  8 22  1  0  0  0
  9 23  1  0  0  0
 10 24  1  0  0  0
 11 12  2  0  0  0
 11 29  1  0  0  0
 12 30  1  0  0  0
 13 25  1  0  0  0
 13 26  1  0  0  0
 13 28  2  0  0  0
 14 15  1  0  0  0
 14 17  1  0  0  0
 14 38  1  0  0  0
 14 39  1  0  0  0
 15 21  1  0  0  0
 15 40  1  0  0  0
 15 41  1  0  0  0
 16 19  1  0  0  0
 16 21  1  0  0  0
 16 42  1  0  0  0
 16 43  1  0  0  0
 17 25  1  0  0  0
 17 44  1  0  0  0
 17 45  1  0  0  0
 18 21  1  0  0  0
 18 25  1  0  0  0
 18 46  1  0  0  0
 18 47  1  0  0  0
 19 27  1  0  0  0
 19 48  1  0  0  0
 19 49  1  0  0  0
 20 21  1  0  0  0
 20 27  1  0  0  0
 20 50  1  0  0  0
 20 51  1  0  0  0
 22 52  1  0  0  0
 22 53  1  0  0  0
 22 54  1  0  0  0
 23 26  1  0  0  0
 23 55  1  0  0  0
 23 56  1  0  0  0
 24 27  1  0  0  0
 24 57  1  0  0  0
 24 58  1  0  0  0
 26 59  1  0  0  0
 27 60  1  0  0  0
M  CHG  1  27   1
M  END
> <s_m_source_file>
../4yz9_ligand.sdf

> <i_m_source_file_index>
1

> <s_epik_input>
W0NIM11jMVtjSF1bY0hdYyhbY0hdW2NIXTEpW0NIMl1bTkhdQyg9TylOKFtDSDJdMilbQ0gyXVtDSDJdW0NIMl1bQ0BdMjNbQ0gyXVtDSDJdW05ASCtdKFtDSDJdMylbQ0gyXWM0W2NIXVtjSF1jKENsKWMoQ2wpW2NIXTQ=

> <s_epik_cmdline>
J2VwaWtfYXBwJywgJy1pbWFlJywgJ2xpZ2FuZF9wcm8ubWFlJywgJy1vbWFlJywgJ2xpZ2FuZF9wcmVwLm1hZScsICctbXMnLCAnMScsICctcGgnLCAnNycsICctcGh0JywgJzAuNScsICctbnQn

> <r_epik_Ionization_Penalty>
  0.0150

> <r_epik_Ionization_Penalty_Charging>
  0.0150

> <r_epik_Ionization_Penalty_Neutral>
  0.0000

> <r_epik_State_Penalty>
  0.0118

> <r_epik_Charging_Adjusted_Penalty>
0.0267359190053685

> <i_epik_Tot_Q>
1

> <i_epik_Tot_abs_Q>
1

$$$$
