4yzc_ligand
                    3D
 Schrodinger Suite 2020-3.
 64 71  0  0  1  0            999 V2000
  -20.0840   35.7080  -53.7190 O   0  0  0  0  0  0
  -21.1110   34.6560  -53.5710 C   0  0  2  0  0  0
  -21.3570   34.3920  -52.0680 C   0  0  0  0  0  0
  -20.4600   35.2690  -51.2390 C   0  0  2  0  0  0
  -19.0480   35.1280  -51.6700 C   0  0  2  0  0  0
  -18.8770   35.7480  -53.0240 C   0  0  2  0  0  0
  -18.5400   37.1870  -52.8960 C   0  0  0  0  0  0
  -17.8440   35.0410  -53.7670 N   0  0  0  0  0  0
  -18.1370   33.8880  -54.5310 C   0  0  0  0  0  0
  -19.3030   33.2340  -54.7310 C   0  0  0  0  0  0
  -19.3970   32.0670  -55.5440 C   0  0  0  0  0  0
  -18.2090   31.6060  -56.1510 C   0  0  0  0  0  0
  -17.0400   32.2680  -55.9470 C   0  0  0  0  0  0
  -16.9770   33.4160  -55.1370 C   0  0  0  0  0  0
  -15.9080   34.2830  -54.7620 C   0  0  0  0  0  0
  -16.4300   35.2780  -53.9240 C   0  0  0  0  0  0
  -15.5970   36.2630  -53.4120 C   0  0  0  0  0  0
  -14.2280   36.2680  -53.7270 C   0  0  0  0  0  0
  -13.6970   35.2710  -54.5670 C   0  0  0  0  0  0
  -14.5500   34.2800  -55.0830 C   0  0  0  0  0  0
  -15.8720   31.5890  -56.7100 C   0  0  0  0  0  0
  -16.5590   30.4170  -57.3000 N   0  3  0  0  0  0
  -17.9540   30.5300  -56.9890 C   0  0  3  0  0  0
  -18.8780   29.6180  -57.5260 O   0  5  0  0  0  0
  -20.7610   31.6280  -55.5410 C   0  0  0  0  0  0
  -21.5060   32.4880  -54.7530 C   0  0  0  0  0  0
  -22.8610   32.3370  -54.5410 C   0  0  0  0  0  0
  -23.5440   31.2830  -55.1410 C   0  0  0  0  0  0
  -22.8350   30.3860  -55.9540 C   0  0  0  0  0  0
  -21.4440   30.5570  -56.1540 C   0  0  0  0  0  0
  -20.6630   33.5280  -54.1820 N   0  0  0  0  0  0
  -18.7030   33.7370  -51.7040 O   0  0  0  0  0  0
  -17.3810   33.4220  -51.2370 C   0  0  0  0  0  0
  -20.5630   34.8870  -49.8390 N   0  3  0  0  0  0
  -20.2220   36.0080  -48.9880 C   0  0  0  0  0  0
  -22.0267   34.9093  -54.1253 H   0  0  0  0  0  0
  -22.4064   34.6136  -51.8238 H   0  0  0  0  0  0
  -21.1426   33.3372  -51.8411 H   0  0  0  0  0  0
  -20.7691   36.3194  -51.3440 H   0  0  0  0  0  0
  -18.3704   35.6045  -50.9462 H   0  0  0  0  0  0
  -19.3328   37.7005  -52.3322 H   0  0  0  0  0  0
  -18.4539   37.6339  -53.8974 H   0  0  0  0  0  0
  -17.5834   37.2936  -52.3634 H   0  0  0  0  0  0
  -16.0070   37.0363  -52.7624 H   0  0  0  0  0  0
  -13.5776   37.0430  -53.3214 H   0  0  0  0  0  0
  -12.6355   35.2675  -54.8147 H   0  0  0  0  0  0
  -14.1488   33.5057  -55.7369 H   0  0  0  0  0  0
  -15.4707   32.2854  -57.4610 H   0  0  0  0  0  0
  -15.0774   31.3188  -55.9989 H   0  0  0  0  0  0
  -16.4082   30.4138  -58.3896 H   0  0  0  0  0  0
  -16.1439   29.4937  -56.8697 H   0  0  0  0  0  0
  -18.0969   31.1789  -57.8657 H   0  0  0  0  0  0
  -23.3958   33.0421  -53.9046 H   0  0  0  0  0  0
  -24.6148   31.1563  -54.9814 H   0  0  0  0  0  0
  -23.3558   29.5564  -56.4322 H   0  0  0  0  0  0
  -20.8975   29.8567  -56.7856 H   0  0  0  0  0  0
  -17.2175   32.3363  -51.3039 H   0  0  0  0  0  0
  -17.2751   33.7450  -50.1908 H   0  0  0  0  0  0
  -16.6385   33.9436  -51.8588 H   0  0  0  0  0  0
  -21.5933   34.5695  -49.6204 H   0  0  0  0  0  0
  -19.8720   34.0561  -49.6338 H   0  0  0  0  0  0
  -20.3038   35.7060  -47.9334 H   0  0  0  0  0  0
  -20.9122   36.8414  -49.1854 H   0  0  0  0  0  0
  -19.1909   36.3280  -49.1988 H   0  0  0  0  0  0
  1  2  1  0  0  0
  1  6  1  0  0  0
  2  3  1  0  0  0
  2 31  1  0  0  0
  2 36  1  0  0  0
  3  4  1  0  0  0
  3 37  1  0  0  0
  3 38  1  0  0  0
  4  5  1  0  0  0
  4 34  1  0  0  0
  4 39  1  0  0  0
  5  6  1  0  0  0
  5 32  1  0  0  0
  5 40  1  0  0  0
  6  7  1  0  0  0
  6  8  1  0  0  0
  7 41  1  0  0  0
  7 42  1  0  0  0
  7 43  1  0  0  0
  8  9  1  0  0  0
  8 16  1  0  0  0
  9 10  2  0  0  0
  9 14  1  0  0  0
 10 11  1  0  0  0
 10 31  1  0  0  0
 11 12  2  0  0  0
 11 25  1  0  0  0
 12 13  1  0  0  0
 12 23  1  0  0  0
 13 14  2  0  0  0
 13 21  1  0  0  0
 14 15  1  0  0  0
 15 16  2  0  0  0
 15 20  1  0  0  0
 16 17  1  0  0  0
 17 18  2  0  0  0
 17 44  1  0  0  0
 18 19  1  0  0  0
 18 45  1  0  0  0
 19 20  2  0  0  0
 19 46  1  0  0  0
 20 47  1  0  0  0
 21 22  1  0  0  0
 21 48  1  0  0  0
 21 49  1  0  0  0
 22 23  1  0  0  0
 22 50  1  0  0  0
 22 51  1  0  0  0
 23 24  1  0  0  0
 23 52  1  0  0  0
 25 26  2  0  0  0
 25 30  1  0  0  0
 26 27  1  0  0  0
 26 31  1  0  0  0
 27 28  2  0  0  0
 27 53  1  0  0  0
 28 29  1  0  0  0
 28 54  1  0  0  0
 29 30  2  0  0  0
 29 55  1  0  0  0
 30 56  1  0  0  0
 32 33  1  0  0  0
 33 57  1  0  0  0
 33 58  1  0  0  0
 33 59  1  0  0  0
 34 35  1  0  0  0
 34 60  1  0  0  0
 34 61  1  0  0  0
 35 62  1  0  0  0
 35 63  1  0  0  0
 35 64  1  0  0  0
M  CHG  3  22   1  24  -1  34   1
M  END
> <s_m_source_file>
../4yzc_ligand.sdf

> <i_m_source_file_index>
1

> <s_epik_input>
W0NIM11PW0NAQEhdMVtDQEhdKFtOSDIrXVtDSDNdKVtDSDJdW0NAQEhdKE8yKW4zYyhbY0hdW2NIXVtjSF1bY0hdNCljNGMoYzNjNW42W0NAXTEyW0NIM10pYzdjKFtDSDJdW05IMitdW0NIXTdbT0hdKWM1YzhjNltjSF1bY0hdW2NIXVtjSF04

> <s_epik_cmdline>
J2VwaWtfYXBwJywgJy1pbWFlJywgJ2xpZ2FuZF9wcm8ubWFlJywgJy1vbWFlJywgJ2xpZ2FuZF9wcmVwLm1hZScsICctbXMnLCAnMScsICctcGgnLCAnNycsICctcGh0JywgJzAuNScsICctbnQn

> <r_lp_tautomer_probability>
1

> <r_epik_Ionization_Penalty>
  0.2291

> <r_epik_Ionization_Penalty_Charging>
  0.2291

> <r_epik_Ionization_Penalty_Neutral>
  0.0000

> <r_epik_State_Penalty>
 -0.0000

> <r_epik_Charging_Adjusted_Penalty>
0.229078532507592

> <i_epik_Tot_Q>
1

> <i_epik_Tot_abs_Q>
3

> <s_epik_Chemistry_Notes>
This compound contains an acetal/aminal-like group ( X-CH(R)-Y where X, Y are N, S, or O) that may be acid/base labile, releasing an aldehyde.

$$$$
