4yzm_ligand
                    3D
 Schrodinger Suite 2020-3.
 81 86  0  0  1  0            999 V2000
  -21.6110  -10.4730  -30.4760 C   0  0  0  0  0  0
  -22.4590  -10.0990  -29.4240 C   0  0  0  0  0  0
  -23.7990  -10.4460  -29.5550 C   0  0  0  0  0  0
  -24.2160  -11.1180  -30.7060 N   0  0  0  0  0  0
  -22.0750  -11.1100  -31.5840 N   0  0  0  0  0  0
  -14.3050  -14.8380  -37.2370 C   0  0  0  0  0  0
  -13.4100  -15.8890  -37.9410 C   0  0  0  0  0  0
  -14.1920  -17.1000  -38.2900 N   0  0  1  0  0  0
  -13.4550  -18.0020  -39.1970 C   0  0  0  0  0  0
  -14.5960  -17.8040  -37.0570 C   0  0  0  0  0  0
  -15.3670  -16.8770  -36.0710 C   0  0  0  0  0  0
  -15.4270  -15.4280  -36.4390 N   0  3  2  0  0  0
  -16.8150  -14.8850  -36.6240 C   0  0  0  0  0  0
  -17.1070  -13.6090  -35.7640 C   0  0  0  0  0  0
  -18.5380  -13.0120  -36.0210 C   0  0  0  0  0  0
  -17.1890  -14.6340  -38.1070 C   0  0  0  0  0  0
  -18.6870  -14.2670  -38.2870 C   0  0  0  0  0  0
  -19.3810  -13.7380  -37.0580 N   0  0  0  0  0  0
  -20.7470  -13.9290  -36.9670 C   0  0  0  0  0  0
  -21.3620  -14.5270  -37.8510 O   0  0  0  0  0  0
  -21.5280  -13.4560  -35.8870 C   0  0  0  0  0  0
  -22.5420  -14.2640  -35.3220 C   0  0  0  0  0  0
  -23.3320  -13.7580  -34.2620 C   0  0  0  0  0  0
  -24.3320  -14.4810  -33.5950 O   0  0  0  0  0  0
  -25.4000  -15.0370  -34.3090 C   0  0  0  0  0  0
  -21.3320  -12.1570  -35.3870 C   0  0  0  0  0  0
  -22.0770  -11.6580  -34.3250 C   0  0  0  0  0  0
  -23.0580  -12.4600  -33.7650 C   0  0  0  0  0  0
  -23.8310  -12.0550  -32.7650 N   0  0  0  0  0  0
  -23.3570  -11.4380  -31.6920 C   0  0  0  0  0  0
  -20.2960  -10.1830  -30.5790 N   0  0  0  0  0  0
  -19.2980  -11.1270  -31.1840 C   0  0  0  0  0  0
  -19.8690   -8.9650  -30.2680 C   0  0  0  0  0  0
  -19.0900   -8.4390  -31.2920 C   0  0  0  0  0  0
  -18.5740   -7.1780  -31.1660 C   0  0  0  0  0  0
  -18.8670   -6.4680  -30.0090 C   0  0  0  0  0  0
  -19.6780   -6.9710  -28.9960 C   0  0  0  0  0  0
  -20.1920   -8.2530  -29.1220 C   0  0  0  0  0  0
  -21.0410   -8.6490  -28.0660 C   0  0  0  0  0  0
  -20.9170   -8.1650  -26.9270 O   0  0  0  0  0  0
  -22.1270   -9.4560  -28.2480 N   0  0  0  0  0  0
  -22.9300   -9.7240  -26.9600 C   0  0  0  0  0  0
  -24.5138  -10.1971  -28.7706 H   0  0  0  0  0  0
  -13.6937  -14.2408  -36.5444 H   0  0  0  0  0  0
  -14.7564  -14.1766  -37.9912 H   0  0  0  0  0  0
  -12.9946  -15.4578  -38.8638 H   0  0  0  0  0  0
  -12.5883  -16.1795  -37.2698 H   0  0  0  0  0  0
  -13.1667  -17.4530  -40.1055 H   0  0  0  0  0  0
  -14.0975  -18.8520  -39.4705 H   0  0  0  0  0  0
  -12.5517  -18.3731  -38.6907 H   0  0  0  0  0  0
  -15.2531  -18.6476  -37.3150 H   0  0  0  0  0  0
  -13.7012  -18.1810  -36.5401 H   0  0  0  0  0  0
  -16.4111  -17.2139  -35.9915 H   0  0  0  0  0  0
  -14.8915  -16.9195  -35.0800 H   0  0  0  0  0  0
  -15.1129  -14.9462  -35.5013 H   0  0  0  0  0  0
  -17.4275  -15.7197  -36.2524 H   0  0  0  0  0  0
  -17.0369  -13.8628  -34.6960 H   0  0  0  0  0  0
  -16.3704  -12.8283  -36.0045 H   0  0  0  0  0  0
  -19.1168  -13.0315  -35.0858 H   0  0  0  0  0  0
  -18.4445  -11.9739  -36.3727 H   0  0  0  0  0  0
  -16.5863  -13.8026  -38.5015 H   0  0  0  0  0  0
  -16.9894  -15.5424  -38.6943 H   0  0  0  0  0  0
  -18.7834  -13.4866  -39.0562 H   0  0  0  0  0  0
  -19.2485  -15.1602  -38.5985 H   0  0  0  0  0  0
  -22.7143  -15.2714  -35.7009 H   0  0  0  0  0  0
  -26.0727  -15.5607  -33.6138 H   0  0  0  0  0  0
  -25.0128  -15.7500  -35.0517 H   0  0  0  0  0  0
  -25.9537  -14.2371  -34.8225 H   0  0  0  0  0  0
  -20.5736  -11.5225  -35.8455 H   0  0  0  0  0  0
  -21.8929  -10.6549  -33.9402 H   0  0  0  0  0  0
  -24.9167  -12.2272  -32.8045 H   0  0  0  0  0  0
  -19.7842  -12.0920  -31.3899 H   0  0  0  0  0  0
  -18.4646  -11.2786  -30.4823 H   0  0  0  0  0  0
  -18.9140  -10.7021  -32.1231 H   0  0  0  0  0  0
  -18.8917   -9.0265  -32.1884 H   0  0  0  0  0  0
  -17.9524   -6.7443  -31.9493 H   0  0  0  0  0  0
  -18.4424   -5.4713  -29.8888 H   0  0  0  0  0  0
  -19.9056   -6.3671  -28.1176 H   0  0  0  0  0  0
  -23.7838  -10.3785  -27.1897 H   0  0  0  0  0  0
  -23.2979   -8.7709  -26.5523 H   0  0  0  0  0  0
  -22.2814  -10.2139  -26.2188 H   0  0  0  0  0  0
  1  2  2  0  0  0
  1  5  1  0  0  0
  1 31  1  0  0  0
  2  3  1  0  0  0
  2 41  1  0  0  0
  3  4  2  0  0  0
  3 43  1  0  0  0
  4 30  1  0  0  0
  5 30  2  0  0  0
  6  7  1  0  0  0
  6 12  1  0  0  0
  6 44  1  0  0  0
  6 45  1  0  0  0
  7  8  1  0  0  0
  7 46  1  0  0  0
  7 47  1  0  0  0
  8  9  1  0  0  0
  8 10  1  0  0  0
  9 48  1  0  0  0
  9 49  1  0  0  0
  9 50  1  0  0  0
 10 11  1  0  0  0
 10 51  1  0  0  0
 10 52  1  0  0  0
 11 12  1  0  0  0
 11 53  1  0  0  0
 11 54  1  0  0  0
 12 13  1  0  0  0
 12 55  1  0  0  0
 13 14  1  0  0  0
 13 16  1  0  0  0
 13 56  1  0  0  0
 14 15  1  0  0  0
 14 57  1  0  0  0
 14 58  1  0  0  0
 15 18  1  0  0  0
 15 59  1  0  0  0
 15 60  1  0  0  0
 16 17  1  0  0  0
 16 61  1  0  0  0
 16 62  1  0  0  0
 17 18  1  0  0  0
 17 63  1  0  0  0
 17 64  1  0  0  0
 18 19  1  0  0  0
 19 20  2  0  0  0
 19 21  1  0  0  0
 21 22  2  0  0  0
 21 26  1  0  0  0
 22 23  1  0  0  0
 22 65  1  0  0  0
 23 24  1  0  0  0
 23 28  2  0  0  0
 24 25  1  0  0  0
 25 66  1  0  0  0
 25 67  1  0  0  0
 25 68  1  0  0  0
 26 27  2  0  0  0
 26 69  1  0  0  0
 27 28  1  0  0  0
 27 70  1  0  0  0
 28 29  1  0  0  0
 29 30  1  0  0  0
 29 71  1  0  0  0
 31 32  1  0  0  0
 31 33  1  0  0  0
 32 72  1  0  0  0
 32 73  1  0  0  0
 32 74  1  0  0  0
 33 34  2  0  0  0
 33 38  1  0  0  0
 34 35  1  0  0  0
 34 75  1  0  0  0
 35 36  2  0  0  0
 35 76  1  0  0  0
 36 37  1  0  0  0
 36 77  1  0  0  0
 37 38  2  0  0  0
 37 78  1  0  0  0
 38 39  1  0  0  0
 39 40  2  0  0  0
 39 41  1  0  0  0
 41 42  1  0  0  0
 42 79  1  0  0  0
 42 80  1  0  0  0
 42 81  1  0  0  0
M  CHG  1  12   1
M  END
> <s_m_source_file>
../4yzm_ligand.sdf

> <i_m_source_file_index>
1

> <s_epik_input>
W2NIXTFbY0hdW2NIXVtjSF1jKE4yW0NIM10pYzFDKD1PKU4oW0NIM10pYyhjMjMpW2NIXW5jKG4zKVtOSF1jKFtjSF1bY0hdNCljKE9bQ0gzXSlbY0hdYzRDKD1PKU4oW0NIMl1bQ0gyXTUpW0NIMl1bQ0gyXVtDSF01W05AQEgrXShbQ0gyXVtDSDJdNilbQ0gyXVtDSDJdW05ASCtdNltDSDNd

> <s_epik_cmdline>
J2VwaWtfYXBwJywgJy1pbWFlJywgJ2xpZ2FuZF9wcm8ubWFlJywgJy1vbWFlJywgJ2xpZ2FuZF9wcmVwLm1hZScsICctbXMnLCAnMScsICctcGgnLCAnNycsICctcGh0JywgJzAuNScsICctbnQn

> <r_lp_tautomer_probability>
1

> <r_epik_Ionization_Penalty>
  0.0047

> <r_epik_Ionization_Penalty_Charging>
  0.0022

> <r_epik_Ionization_Penalty_Neutral>
  0.0025

> <r_epik_State_Penalty>
 -0.0000

> <r_epik_Charging_Adjusted_Penalty>
0.00224272203193204

> <i_epik_Tot_Q>
1

> <i_epik_Tot_abs_Q>
1

$$$$
