4yzn_ligand
                    3D
 Schrodinger Suite 2020-3.
 53 56  0  0  1  0            999 V2000
   -8.3450   12.5790   16.6080 C   0  0  0  0  0  0
   -9.2830   11.9080   15.7330 C   0  0  0  0  0  0
  -10.6130   12.3120   15.8760 C   0  0  0  0  0  0
  -11.0070   13.3420   16.6870 N   0  0  0  0  0  0
   -8.8130   13.6340   17.3460 N   0  0  0  0  0  0
   -5.7090   14.3530   17.3210 C   0  0  0  0  0  0
   -4.7710   13.1830   17.2960 C   0  0  0  0  0  0
   -6.2470   12.9610   17.6380 C   0  0  0  0  0  0
   -7.0580   12.2820   16.5710 N   0  0  0  0  0  0
   -8.9060   10.8800   14.8600 C   0  0  0  0  0  0
   -9.8780   10.3580   14.0930 F   0  0  0  0  0  0
   -7.9750   11.2920   13.9100 F   0  0  0  0  0  0
   -8.2930    9.8450   15.3900 F   0  0  0  0  0  0
  -10.0910   14.0070   17.4280 C   0  0  0  0  0  0
  -10.5360   15.0070   18.1550 N   0  0  0  0  0  0
   -9.7770   15.8800   18.9530 C   0  0  0  0  0  0
  -10.3920   17.1080   19.2660 C   0  0  0  0  0  0
   -9.7980   18.0310   20.1530 C   0  0  0  0  0  0
  -11.6070   17.3340   18.6530 O   0  0  0  0  0  0
  -12.3110   18.6090   19.0300 C   0  0  0  0  0  0
   -8.5590   15.5810   19.5810 C   0  0  0  0  0  0
   -7.9740   16.5200   20.4440 C   0  0  0  0  0  0
   -6.8010   16.2170   20.9500 F   0  0  0  0  0  0
   -8.5540   17.7680   20.7080 C   0  0  0  0  0  0
   -8.0400   18.7170   21.6330 C   0  0  0  0  0  0
   -8.5240   18.6890   22.7800 O   0  0  0  0  0  0
   -7.1520   19.6730   21.3320 N   0  0  0  0  0  0
   -6.7650   20.6240   22.4510 C   0  0  0  0  0  0
   -5.3430   21.2000   22.3170 C   0  0  0  0  0  0
   -5.0620   21.5360   20.9190 O   0  0  0  0  0  0
   -5.1210   20.3490   20.0300 C   0  0  0  0  0  0
   -6.5560   19.7880   19.9740 C   0  0  0  0  0  0
  -11.3777   11.7784   15.3115 H   0  0  0  0  0  0
   -5.3652   15.0826   18.0690 H   0  0  0  0  0  0
   -5.7301   14.8274   16.3288 H   0  0  0  0  0  0
   -4.3334   13.0853   16.2915 H   0  0  0  0  0  0
   -3.9686   13.3405   18.0317 H   0  0  0  0  0  0
   -6.8218   12.5143   18.4627 H   0  0  0  0  0  0
   -6.5677   11.6090   15.8522 H   0  0  0  0  0  0
  -11.6123   15.2325   18.1800 H   0  0  0  0  0  0
  -10.3191   18.9551   20.4033 H   0  0  0  0  0  0
  -13.2620   18.6787   18.4816 H   0  0  0  0  0  0
  -11.6752   19.4689   18.7723 H   0  0  0  0  0  0
  -12.5105   18.6116   20.1118 H   0  0  0  0  0  0
   -8.0695   14.6242   19.3996 H   0  0  0  0  0  0
   -7.4610   21.4757   22.4655 H   0  0  0  0  0  0
   -6.8124   20.0953   23.4144 H   0  0  0  0  0  0
   -5.2565   22.1093   22.9299 H   0  0  0  0  0  0
   -4.6114   20.4545   22.6618 H   0  0  0  0  0  0
   -4.8092   20.6354   19.0147 H   0  0  0  0  0  0
   -4.4470   19.5692   20.4143 H   0  0  0  0  0  0
   -6.5224   18.7945   19.5030 H   0  0  0  0  0  0
   -7.1695   20.4641   19.3604 H   0  0  0  0  0  0
  1  2  2  0  0  0
  1  5  1  0  0  0
  1  9  1  0  0  0
  2  3  1  0  0  0
  2 10  1  0  0  0
  3  4  2  0  0  0
  3 33  1  0  0  0
  4 14  1  0  0  0
  5 14  2  0  0  0
  6  7  1  0  0  0
  6  8  1  0  0  0
  6 34  1  0  0  0
  6 35  1  0  0  0
  7  8  1  0  0  0
  7 36  1  0  0  0
  7 37  1  0  0  0
  8  9  1  0  0  0
  8 38  1  0  0  0
  9 39  1  0  0  0
 10 11  1  0  0  0
 10 12  1  0  0  0
 10 13  1  0  0  0
 14 15  1  0  0  0
 15 16  1  0  0  0
 15 40  1  0  0  0
 16 17  2  0  0  0
 16 21  1  0  0  0
 17 18  1  0  0  0
 17 19  1  0  0  0
 18 24  2  0  0  0
 18 41  1  0  0  0
 19 20  1  0  0  0
 20 42  1  0  0  0
 20 43  1  0  0  0
 20 44  1  0  0  0
 21 22  2  0  0  0
 21 45  1  0  0  0
 22 23  1  0  0  0
 22 24  1  0  0  0
 24 25  1  0  0  0
 25 26  2  0  0  0
 25 27  1  0  0  0
 27 28  1  0  0  0
 27 32  1  0  0  0
 28 29  1  0  0  0
 28 46  1  0  0  0
 28 47  1  0  0  0
 29 30  1  0  0  0
 29 48  1  0  0  0
 29 49  1  0  0  0
 30 31  1  0  0  0
 31 32  1  0  0  0
 31 50  1  0  0  0
 31 51  1  0  0  0
 32 52  1  0  0  0
 32 53  1  0  0  0
M  END
> <s_m_source_file>
../4yzn_ligand.sdf

> <i_m_source_file_index>
1

> <s_epik_input>
W0NIMl0xW0NIMl1bQ0hdMVtOSF1jMmMoQyhGKShGKUYpW2NIXW5jKG4yKVtOSF1jM2MoT1tDSDNdKVtjSF1jKGMoRilbY0hdMylDKD1PKU40W0NIMl1bQ0gyXU9bQ0gyXVtDSDJdNA==

> <s_epik_cmdline>
J2VwaWtfYXBwJywgJy1pbWFlJywgJ2xpZ2FuZF9wcm8ubWFlJywgJy1vbWFlJywgJ2xpZ2FuZF9wcmVwLm1hZScsICctbXMnLCAnMScsICctcGgnLCAnNycsICctcGh0JywgJzAuNScsICctbnQn

> <r_lp_tautomer_probability>
1

> <r_epik_Ionization_Penalty>
  0.0005

> <r_epik_Ionization_Penalty_Charging>
  0.0000

> <r_epik_Ionization_Penalty_Neutral>
  0.0005

> <r_epik_State_Penalty>
 -0.0000

> <r_epik_Charging_Adjusted_Penalty>
0

> <i_epik_Tot_Q>
0

> <i_epik_Tot_abs_Q>
0

$$$$
