4z0k_ligand
                    3D
 Schrodinger Suite 2020-3.
 52 56  0  0  1  0            999 V2000
  -15.0260  -38.4060  -14.0580 O   0  0  0  0  0  0
  -15.1220  -38.2890  -12.8360 C   0  0  0  0  0  0
  -15.1790  -39.4930  -11.9610 C   0  0  0  0  0  0
  -14.2760  -39.6580  -10.9130 C   0  0  0  0  0  0
  -14.2580  -40.8260  -10.1750 C   0  0  0  0  0  0
  -15.1600  -41.8390  -10.4600 C   0  0  0  0  0  0
  -15.1230  -43.0590   -9.7190 N   0  0  0  0  0  0
  -15.3060  -44.3220  -10.1870 C   0  0  0  0  0  0
  -15.1950  -45.1940   -9.2270 N   0  0  0  0  0  0
  -14.9250  -44.4840   -8.0640 N   0  0  0  0  0  0
  -14.8890  -43.2240   -8.3910 C   0  0  0  0  0  0
  -16.0810  -41.6760  -11.4840 C   0  0  0  0  0  0
  -16.0850  -40.5130  -12.2310 C   0  0  0  0  0  0
  -15.1980  -37.0930  -12.2110 N   0  0  0  0  0  0
  -15.1260  -35.7590  -12.8310 C   0  0  1  0  0  0
  -16.2850  -35.5730  -13.8060 C   0  0  0  0  0  0
  -15.1980  -34.7220  -11.6920 C   0  0  0  0  0  0
  -13.9380  -34.7500  -10.8830 C   0  0  0  0  0  0
  -13.6730  -34.2630   -9.6200 C   0  0  0  0  0  0
  -14.4520  -33.6890   -8.5800 C   0  0  0  0  0  0
  -15.7940  -33.5640   -8.7470 O   0  0  0  0  0  0
  -13.8200  -33.3370   -7.4050 C   0  0  0  0  0  0
  -12.4650  -33.5700   -7.2380 C   0  0  0  0  0  0
  -13.7910  -35.5930  -13.5730 C   0  0  0  0  0  0
  -12.5810  -35.9650  -12.7050 C   0  0  0  0  0  0
  -12.7270  -35.2830  -11.3820 C   0  0  0  0  0  0
  -11.7130  -35.1220  -10.4760 N   0  0  0  0  0  0
  -12.2960  -34.5000   -9.4130 N   0  0  0  0  0  0
  -11.6770  -34.1320   -8.2350 C   0  0  0  0  0  0
  -10.2030  -34.3100   -8.0760 C   0  0  0  0  0  0
  -13.5764  -38.8574  -10.6727 H   0  0  0  0  0  0
  -13.5348  -40.9507   -9.3691 H   0  0  0  0  0  0
  -15.5174  -44.5712  -11.2269 H   0  0  0  0  0  0
  -14.6967  -42.4100   -7.6921 H   0  0  0  0  0  0
  -16.8016  -42.4649  -11.6997 H   0  0  0  0  0  0
  -16.8057  -40.3941  -13.0400 H   0  0  0  0  0  0
  -15.3274  -37.1874  -11.1227 H   0  0  0  0  0  0
  -17.2380  -35.6928  -13.2698 H   0  0  0  0  0  0
  -16.2165  -36.3261  -14.6049 H   0  0  0  0  0  0
  -16.2359  -34.5661  -14.2461 H   0  0  0  0  0  0
  -15.3282  -33.7167  -12.1191 H   0  0  0  0  0  0
  -16.0504  -34.9553  -11.0371 H   0  0  0  0  0  0
  -16.2592  -33.8561   -9.7000 H   0  0  0  0  0  0
  -14.3917  -32.8719   -6.6019 H   0  0  0  0  0  0
  -11.9995  -33.3026   -6.2894 H   0  0  0  0  0  0
  -13.7816  -36.2427  -14.4605 H   0  0  0  0  0  0
  -13.6726  -34.5448  -13.8847 H   0  0  0  0  0  0
  -12.5506  -37.0558  -12.5665 H   0  0  0  0  0  0
  -11.6575  -35.6326  -13.2016 H   0  0  0  0  0  0
   -9.8973  -33.9625   -7.0781 H   0  0  0  0  0  0
   -9.6779  -33.7244   -8.8450 H   0  0  0  0  0  0
   -9.9480  -35.3742   -8.1877 H   0  0  0  0  0  0
  1  2  2  0  0  0
  2  3  1  0  0  0
  2 14  1  0  0  0
  3  4  2  0  0  0
  3 13  1  0  0  0
  4  5  1  0  0  0
  4 31  1  0  0  0
  5  6  2  0  0  0
  5 32  1  0  0  0
  6  7  1  0  0  0
  6 12  1  0  0  0
  7  8  1  0  0  0
  7 11  1  0  0  0
  8  9  2  0  0  0
  8 33  1  0  0  0
  9 10  1  0  0  0
 10 11  2  0  0  0
 11 34  1  0  0  0
 12 13  2  0  0  0
 12 35  1  0  0  0
 13 36  1  0  0  0
 14 15  1  0  0  0
 14 37  1  0  0  0
 15 16  1  0  0  0
 15 17  1  0  0  0
 15 24  1  0  0  0
 16 38  1  0  0  0
 16 39  1  0  0  0
 16 40  1  0  0  0
 17 18  1  0  0  0
 17 41  1  0  0  0
 17 42  1  0  0  0
 18 19  2  0  0  0
 18 26  1  0  0  0
 19 20  1  0  0  0
 19 28  1  0  0  0
 20 21  1  0  0  0
 20 22  2  0  0  0
 21 43  1  0  0  0
 22 23  1  0  0  0
 22 44  1  0  0  0
 23 29  2  0  0  0
 23 45  1  0  0  0
 24 25  1  0  0  0
 24 46  1  0  0  0
 24 47  1  0  0  0
 25 26  1  0  0  0
 25 48  1  0  0  0
 25 49  1  0  0  0
 26 27  2  0  0  0
 27 28  1  0  0  0
 28 29  1  0  0  0
 29 30  1  0  0  0
 30 50  1  0  0  0
 30 51  1  0  0  0
 30 52  1  0  0  0
M  END
> <s_m_source_file>
../4z0k_ligand.sdf

> <i_m_source_file_index>
1

> <s_epik_input>
W2NIXTFubltjSF1uMS1jKFtjSF1bY0hdMilbY0hdW2NIXWMyQyg9TylbTkhdW0NAQF0oW0NIM10pKFtDSDJdMylbQ0gyXVtDSDJdYzRubihjNWMzNCljKFtDSDNdKVtjSF1bY0hdYzVbT0hd

> <s_epik_cmdline>
J2VwaWtfYXBwJywgJy1pbWFlJywgJ2xpZ2FuZF9wcm8ubWFlJywgJy1vbWFlJywgJ2xpZ2FuZF9wcmVwLm1hZScsICctbXMnLCAnMScsICctcGgnLCAnNycsICctcGh0JywgJzAuNScsICctbnQn

> <r_lp_tautomer_probability>
1

> <r_epik_Ionization_Penalty>
  0.0055

> <r_epik_Ionization_Penalty_Charging>
  0.0000

> <r_epik_Ionization_Penalty_Neutral>
  0.0055

> <r_epik_State_Penalty>
 -0.0000

> <r_epik_Charging_Adjusted_Penalty>
0

> <i_epik_Tot_Q>
0

> <i_epik_Tot_abs_Q>
0

$$$$
