4z1j_ligand
                    3D
 Schrodinger Suite 2020-3.
 38 40  0  0  1  0            999 V2000
   18.6380   11.1480   11.6990 C   0  0  0  0  0  0
   18.5440    9.9870   12.4930 C   0  0  0  0  0  0
   16.3930    7.2090   13.0610 C   0  0  0  0  0  0
   16.1480    6.0820   14.0040 C   0  0  0  0  0  0
   17.8630    8.7660   11.8870 C   0  0  0  0  0  0
   18.7110    7.6220   13.8490 C   0  0  0  0  0  0
   18.9580    8.8490   14.6960 C   0  0  0  0  0  0
   19.0420   10.0220   13.8310 C   0  0  0  0  0  0
   15.4060    7.5740   12.3780 O   0  0  0  0  0  0
   16.9990    4.9470   14.0180 C   0  0  0  0  0  0
   16.6790    3.8920   14.8830 C   0  0  0  0  0  0
   15.0400    6.1380   14.8220 C   0  0  0  0  0  0
   14.7470    5.0770   15.6480 C   0  0  0  0  0  0
   15.5550    3.9210   15.7300 C   0  0  0  0  0  0
   15.1130    2.6380   16.7860 S   0  0  0  0  0  0
   15.6950    1.2800   16.1550 N   0  0  0  0  0  0
   13.6400    2.6720   16.7860 O   0  0  0  0  0  0
   15.7510    2.8730   18.0340 O   0  0  0  0  0  0
   17.6270    7.7680   12.9110 N   0  0  0  0  0  0
   19.6650   11.1630   14.3780 C   0  0  0  0  0  0
   19.7610   12.3090   13.5780 C   0  0  0  0  0  0
   19.2480   12.2900   12.2550 C   0  0  0  0  0  0
   18.2488   11.1619   10.6810 H   0  0  0  0  0  0
   16.9009    9.0644   11.4451 H   0  0  0  0  0  0
   18.5076    8.3365   11.1060 H   0  0  0  0  0  0
   19.6154    7.3898   13.2674 H   0  0  0  0  0  0
   18.4652    6.7703   14.5003 H   0  0  0  0  0  0
   18.1298    8.9752   15.4089 H   0  0  0  0  0  0
   19.9020    8.7296   15.2480 H   0  0  0  0  0  0
   17.8770    4.8970   13.3741 H   0  0  0  0  0  0
   17.3256    3.0147   14.9007 H   0  0  0  0  0  0
   14.3984    7.0192   14.8147 H   0  0  0  0  0  0
   13.8513    5.1309   16.2668 H   0  0  0  0  0  0
   15.4321    0.4319   16.8043 H   0  0  0  0  0  0
   16.7895    1.3535   16.0729 H   0  0  0  0  0  0
   20.0603   11.1534   15.3937 H   0  0  0  0  0  0
   20.2282   13.2123   13.9704 H   0  0  0  0  0  0
   19.3287   13.1911   11.6471 H   0  0  0  0  0  0
  1  2  2  0  0  0
  1 22  1  0  0  0
  1 23  1  0  0  0
  2  5  1  0  0  0
  2  8  1  0  0  0
  3  4  1  0  0  0
  3  9  2  0  0  0
  3 19  1  0  0  0
  4 10  2  0  0  0
  4 12  1  0  0  0
  5 19  1  0  0  0
  5 24  1  0  0  0
  5 25  1  0  0  0
  6  7  1  0  0  0
  6 19  1  0  0  0
  6 26  1  0  0  0
  6 27  1  0  0  0
  7  8  1  0  0  0
  7 28  1  0  0  0
  7 29  1  0  0  0
  8 20  2  0  0  0
 10 11  1  0  0  0
 10 30  1  0  0  0
 11 14  2  0  0  0
 11 31  1  0  0  0
 12 13  2  0  0  0
 12 32  1  0  0  0
 13 14  1  0  0  0
 13 33  1  0  0  0
 14 15  1  0  0  0
 15 16  1  0  0  0
 15 17  2  0  0  0
 15 18  2  0  0  0
 16 34  1  0  0  0
 16 35  1  0  0  0
 20 21  1  0  0  0
 20 36  1  0  0  0
 21 22  2  0  0  0
 21 37  1  0  0  0
 22 38  1  0  0  0
M  END
> <s_m_source_file>
../4z1j_ligand.sdf

> <i_m_source_file_index>
1

> <s_epik_input>
W2NIXTFbY0hdW2NIXVtjSF1jKGMxMilbQ0gyXVtDSDJdTihbQ0gyXTIpQyg9TyljM1tjSF1bY0hdYyhbY0hdW2NIXTMpUyg9TykoPU8pW05IMl0=

> <s_epik_cmdline>
J2VwaWtfYXBwJywgJy1pbWFlJywgJ2xpZ2FuZF9wcm8ubWFlJywgJy1vbWFlJywgJ2xpZ2FuZF9wcmVwLm1hZScsICctbXMnLCAnMScsICctcGgnLCAnNycsICctcGh0JywgJzAuNScsICctbnQn

> <r_lp_tautomer_probability>
1

> <r_epik_Ionization_Penalty>
  0.0013

> <r_epik_Ionization_Penalty_Charging>
  0.0000

> <r_epik_Ionization_Penalty_Neutral>
  0.0013

> <r_epik_State_Penalty>
 -0.0000

> <r_epik_Charging_Adjusted_Penalty>
0

> <i_epik_Tot_Q>
0

> <i_epik_Tot_abs_Q>
0

$$$$
