4z1k_ligand
                    3D
 Schrodinger Suite 2020-3.
 40 42  0  0  1  0            999 V2000
   18.5820   11.0000   11.6180 C   0  0  0  0  0  0
   18.5520    9.9280   12.5010 C   0  0  0  0  0  0
   16.4650    7.1920   13.1550 C   0  0  0  0  0  0
   16.2010    6.0650   14.0930 C   0  0  0  0  0  0
   17.9080    8.7100   11.9780 C   0  0  0  0  0  0
   18.7240    7.5970   13.9960 C   0  0  0  0  0  0
   19.0430    8.8860   14.6990 C   0  0  0  0  0  0
   19.1010   10.0250   13.7780 C   0  0  0  0  0  0
   15.4820    7.4680   12.4210 O   0  0  0  0  0  0
   17.0600    4.9700   14.1960 C   0  0  0  0  0  0
   16.7230    3.9070   15.0470 C   0  0  0  0  0  0
   15.0690    6.0840   14.8380 C   0  0  0  0  0  0
   14.7310    5.0230   15.6450 C   0  0  0  0  0  0
   15.5520    3.8920   15.7950 C   0  0  0  0  0  0
   15.0570    2.6030   16.8190 S   0  0  0  0  0  0
   15.6280    1.2720   16.2070 N   0  0  0  0  0  0
   13.6510    2.6570   16.7980 O   0  0  0  0  0  0
   15.6530    2.8410   18.0900 O   0  0  0  0  0  0
   17.6810    7.7500   13.0610 N   0  0  0  0  0  0
   19.7170   11.2030   14.2140 C   0  0  0  0  0  0
   19.7560   12.2880   13.3300 C   0  0  0  0  0  0
   20.3850   13.4260   13.8250 O   0  0  0  0  0  0
   19.1850   12.1760   12.0460 C   0  0  0  0  0  0
   19.2260   13.2630   11.1760 O   0  0  0  0  0  0
   18.1466   10.9210   10.6219 H   0  0  0  0  0  0
   16.9418    8.9728   11.5227 H   0  0  0  0  0  0
   18.5574    8.2487   11.2194 H   0  0  0  0  0  0
   19.6163    7.2411   13.4601 H   0  0  0  0  0  0
   18.4150    6.8430   14.7350 H   0  0  0  0  0  0
   18.2673    9.0957   15.4502 H   0  0  0  0  0  0
   20.0208    8.8006   15.1957 H   0  0  0  0  0  0
   17.9850    4.9410   13.6201 H   0  0  0  0  0  0
   17.4055    3.0607   15.1245 H   0  0  0  0  0  0
   14.4152    6.9552   14.7968 H   0  0  0  0  0  0
   13.7881    5.0606   16.1905 H   0  0  0  0  0  0
   15.3306    0.4213   16.8377 H   0  0  0  0  0  0
   16.7256    1.3299   16.1632 H   0  0  0  0  0  0
   20.1529   11.2739   15.2105 H   0  0  0  0  0  0
   20.8037   13.4245   14.8422 H   0  0  0  0  0  0
   18.7821   13.1816   10.1728 H   0  0  0  0  0  0
  1  2  2  0  0  0
  1 23  1  0  0  0
  1 25  1  0  0  0
  2  5  1  0  0  0
  2  8  1  0  0  0
  3  4  1  0  0  0
  3  9  2  0  0  0
  3 19  1  0  0  0
  4 10  2  0  0  0
  4 12  1  0  0  0
  5 19  1  0  0  0
  5 26  1  0  0  0
  5 27  1  0  0  0
  6  7  1  0  0  0
  6 19  1  0  0  0
  6 28  1  0  0  0
  6 29  1  0  0  0
  7  8  1  0  0  0
  7 30  1  0  0  0
  7 31  1  0  0  0
  8 20  2  0  0  0
 10 11  1  0  0  0
 10 32  1  0  0  0
 11 14  2  0  0  0
 11 33  1  0  0  0
 12 13  2  0  0  0
 12 34  1  0  0  0
 13 14  1  0  0  0
 13 35  1  0  0  0
 14 15  1  0  0  0
 15 16  1  0  0  0
 15 17  2  0  0  0
 15 18  2  0  0  0
 16 36  1  0  0  0
 16 37  1  0  0  0
 20 21  1  0  0  0
 20 38  1  0  0  0
 21 22  1  0  0  0
 21 23  2  0  0  0
 22 39  1  0  0  0
 23 24  1  0  0  0
 24 40  1  0  0  0
M  END
> <s_m_source_file>
../4z1k_ligand.sdf

> <i_m_source_file_index>
1

> <s_epik_input>
W2NIXTFjKFtPSF0pYyhbT0hdKVtjSF1jKGMxMilbQ0gyXVtDSDJdTihbQ0gyXTIpQyg9TyljM1tjSF1bY0hdYyhbY0hdW2NIXTMpUyg9TykoPU8pW05IMl0=

> <s_epik_cmdline>
J2VwaWtfYXBwJywgJy1pbWFlJywgJ2xpZ2FuZF9wcm8ubWFlJywgJy1vbWFlJywgJ2xpZ2FuZF9wcmVwLm1hZScsICctbXMnLCAnMScsICctcGgnLCAnNycsICctcGh0JywgJzAuNScsICctbnQn

> <r_lp_tautomer_probability>
1

> <r_epik_Ionization_Penalty>
  0.0030

> <r_epik_Ionization_Penalty_Charging>
  0.0000

> <r_epik_Ionization_Penalty_Neutral>
  0.0030

> <r_epik_State_Penalty>
 -0.0000

> <r_epik_Charging_Adjusted_Penalty>
0

> <i_epik_Tot_Q>
0

> <i_epik_Tot_abs_Q>
0

$$$$
