4z1s_ligand
                    3D
 Schrodinger Suite 2020-3.
 51 55  0  0  1  0            999 V2000
  -27.9340  -61.1300  135.9780 C   0  0  0  0  0  0
  -28.7770  -61.8680  135.1870 C   0  0  0  0  0  0
  -30.1380  -61.8270  135.4140 C   0  0  0  0  0  0
  -30.8910  -62.5340  134.6020 N   0  0  0  0  0  0
  -30.6570  -61.0970  136.3990 N   0  0  0  0  0  0
  -29.8190  -60.3090  137.2470 C   0  0  0  0  0  0
  -28.4190  -60.3090  137.0210 C   0  0  0  0  0  0
  -27.5060  -59.5300  137.8970 C   0  0  0  0  0  0
  -26.3160  -59.0860  137.3350 C   0  0  0  0  0  0
  -25.4220  -58.2940  138.0780 C   0  0  0  0  0  0
  -27.8580  -59.2120  139.1710 C   0  0  0  0  0  0
  -26.9980  -58.4240  139.9500 C   0  0  0  0  0  0
  -25.7730  -57.9730  139.4110 C   0  0  0  0  0  0
  -24.9040  -57.2220  140.2290 N   0  0  0  0  0  0
  -25.0940  -56.2340  141.0950 C   0  0  0  0  0  0
  -26.4400  -55.6190  141.3520 C   0  0  0  0  0  0
  -23.9790  -55.8550  141.6070 N   0  0  0  0  0  0
  -22.9310  -56.7100  141.0880 N   0  0  0  0  0  0
  -23.5450  -57.5330  140.2390 C   0  0  0  0  0  0
  -22.7670  -58.5580  139.5300 C   0  0  1  0  0  0
  -23.2530  -59.9130  139.9970 C   0  0  0  0  0  0
  -22.8840  -58.3620  138.0340 C   0  0  0  0  0  0
  -24.2040  -57.8800  137.5000 N   0  0  0  0  0  0
  -24.2140  -57.3650  136.2350 C   0  0  0  0  0  0
  -25.3160  -56.6980  135.7340 C   0  0  0  0  0  0
  -25.3670  -56.0710  134.5090 C   0  0  0  0  0  0
  -24.2560  -56.0920  133.7170 C   0  0  0  0  0  0
  -24.1800  -55.3490  132.1790 Cl  0  0  0  0  0  0
  -23.1010  -56.8180  134.1760 C   0  0  0  0  0  0
  -23.0420  -57.4190  135.4120 C   0  0  0  0  0  0
  -26.8602  -61.1780  135.7972 H   0  0  0  0  0  0
  -28.3742  -62.4840  134.3830 H   0  0  0  0  0  0
  -30.4284  -63.1260  133.7985 H   0  0  0  0  0  0
  -31.9840  -62.5339  134.7256 H   0  0  0  0  0  0
  -30.2492  -59.7172  138.0549 H   0  0  0  0  0  0
  -26.0722  -59.3542  136.3070 H   0  0  0  0  0  0
  -28.8021  -59.5670  139.5843 H   0  0  0  0  0  0
  -27.2749  -58.1599  140.9706 H   0  0  0  0  0  0
  -27.2055  -56.1572  140.7737 H   0  0  0  0  0  0
  -26.4248  -54.5625  141.0462 H   0  0  0  0  0  0
  -26.6754  -55.6870  142.4244 H   0  0  0  0  0  0
  -21.7001  -58.4545  139.7772 H   0  0  0  0  0  0
  -23.1397  -59.9869  141.0887 H   0  0  0  0  0  0
  -22.6595  -60.7023  139.5125 H   0  0  0  0  0  0
  -24.3130  -60.0346  139.7293 H   0  0  0  0  0  0
  -22.1460  -57.6164  137.7031 H   0  0  0  0  0  0
  -22.6943  -59.3175  137.5230 H   0  0  0  0  0  0
  -26.2114  -56.6659  136.3547 H   0  0  0  0  0  0
  -26.2761  -55.5683  134.1788 H   0  0  0  0  0  0
  -22.2366  -56.8948  133.5164 H   0  0  0  0  0  0
  -22.1355  -57.9188  135.7535 H   0  0  0  0  0  0
  1  2  2  0  0  0
  1  7  1  0  0  0
  1 31  1  0  0  0
  2  3  1  0  0  0
  2 32  1  0  0  0
  3  4  1  0  0  0
  3  5  2  0  0  0
  4 33  1  0  0  0
  4 34  1  0  0  0
  5  6  1  0  0  0
  6  7  2  0  0  0
  6 35  1  0  0  0
  7  8  1  0  0  0
  8  9  2  0  0  0
  8 11  1  0  0  0
  9 10  1  0  0  0
  9 36  1  0  0  0
 10 13  2  0  0  0
 10 23  1  0  0  0
 11 12  2  0  0  0
 11 37  1  0  0  0
 12 13  1  0  0  0
 12 38  1  0  0  0
 13 14  1  0  0  0
 14 15  1  0  0  0
 14 19  1  0  0  0
 15 16  1  0  0  0
 15 17  2  0  0  0
 16 39  1  0  0  0
 16 40  1  0  0  0
 16 41  1  0  0  0
 17 18  1  0  0  0
 18 19  2  0  0  0
 19 20  1  0  0  0
 20 21  1  0  0  0
 20 22  1  0  0  0
 20 42  1  0  0  0
 21 43  1  0  0  0
 21 44  1  0  0  0
 21 45  1  0  0  0
 22 23  1  0  0  0
 22 46  1  0  0  0
 22 47  1  0  0  0
 23 24  1  0  0  0
 24 25  2  0  0  0
 24 30  1  0  0  0
 25 26  1  0  0  0
 25 48  1  0  0  0
 26 27  2  0  0  0
 26 49  1  0  0  0
 27 28  1  0  0  0
 27 29  1  0  0  0
 29 30  2  0  0  0
 29 50  1  0  0  0
 30 51  1  0  0  0
M  END
> <s_m_source_file>
../4z1s_ligand.sdf

> <i_m_source_file_index>
1

> <s_epik_input>
W05IMl1jMVtjSF1bY0hdYyhbY0hdbjEpLWMoW2NIXTIpW2NIXVtjSF1jKGMyMyluNGMobm5jNFtDSDNdKVtDQEBIXShbQ0gzXSlbQ0gyXU4zYzVbY0hdW2NIXWMoQ2wpW2NIXVtjSF01

> <s_epik_cmdline>
J2VwaWtfYXBwJywgJy1pbWFlJywgJ2xpZ2FuZF9wcm8ubWFlJywgJy1vbWFlJywgJ2xpZ2FuZF9wcmVwLm1hZScsICctbXMnLCAnMScsICctcGgnLCAnNycsICctcGh0JywgJzAuNScsICctbnQn

> <r_lp_tautomer_probability>
0.999999772200052

> <r_epik_Ionization_Penalty>
  0.0876

> <r_epik_Ionization_Penalty_Charging>
  0.0000

> <r_epik_Ionization_Penalty_Neutral>
  0.0876

> <r_epik_State_Penalty>
  0.0777

> <r_epik_Charging_Adjusted_Penalty>
0.0776671860066876

> <i_epik_Tot_Q>
0

> <i_epik_Tot_abs_Q>
0

$$$$
