4z2g_ligand
                    3D
 Schrodinger Suite 2020-3.
110111  0  0  1  0            999 V2000
  -20.7580    3.5640  -31.5190 N   0  0  0  0  0  0
  -24.3480    5.4910  -33.3780 C   0  0  1  0  0  0
  -18.6840   -1.8170  -29.8880 N   0  0  0  0  0  0
  -25.1990    3.1490  -32.6670 C   0  0  2  0  0  0
  -24.9270    1.6450  -32.9280 C   0  0  2  0  0  0
  -25.9070    1.0500  -33.9480 C   0  0  1  0  0  0
  -20.5400   -6.2790  -30.9110 C   0  0  0  0  0  0
  -20.9570   -5.0910  -30.1890 N   0  0  0  0  0  0
  -20.0430   -4.1390  -30.0380 C   0  0  0  0  0  0
  -18.9040   -4.2680  -30.5790 O   0  0  0  0  0  0
  -20.4640   -3.0950  -29.3120 N   0  3  0  0  0  0
  -19.7920   -1.9590  -29.2610 C   0  0  0  0  0  0
  -20.2830   -0.9500  -28.5390 N   0  0  0  0  0  0
  -19.0070    2.2950  -30.3420 C   0  0  0  0  0  0
  -19.4640    2.8880  -31.6910 C   0  0  0  0  0  0
  -21.6950    3.5870  -32.4550 C   0  0  0  0  0  0
  -21.4890    3.2500  -33.5900 O   0  0  0  0  0  0
  -23.0310    3.8980  -32.0500 O   0  0  0  0  0  0
  -24.0040    3.9930  -33.0950 C   0  0  2  0  0  0
  -25.6130    3.5310  -31.2420 C   0  0  0  0  0  0
  -23.2570    6.0940  -34.2690 C   0  0  0  0  0  0
  -25.6900    5.7250  -34.0430 C   0  0  0  0  0  0
  -25.7810    5.7310  -35.2370 O   0  0  0  0  0  0
  -26.9090    5.9080  -33.2700 O   0  0  0  0  0  0
  -28.0610    6.4430  -33.9310 C   0  0  2  0  0  0
  -28.3490    7.8470  -33.3830 C   0  0  0  0  0  0
  -27.2010    8.7810  -33.7270 C   0  0  0  0  0  0
  -29.2320    5.4990  -33.6910 C   0  0  2  0  0  0
  -30.4310    6.1090  -34.1430 O   0  0  0  0  0  0
  -29.5030    5.3190  -32.1930 C   0  0  0  0  0  0
  -28.8380    4.2170  -34.5110 C   0  0  1  0  0  0
  -29.4730    2.8870  -34.0840 C   0  0  1  0  0  0
  -30.9870    2.9130  -33.9180 C   0  0  0  0  0  0
  -28.9890    4.3580  -35.9330 O   0  0  0  0  0  0
  -28.3260    3.3720  -36.7380 C   0  0  0  0  0  0
  -27.0400    3.9070  -37.3520 C   0  0  0  0  0  0
  -29.2780    3.0140  -37.8780 C   0  0  0  0  0  0
  -27.9990    2.1930  -35.9750 O   0  0  0  0  0  0
  -29.0060    1.7600  -35.0310 C   0  0  1  0  0  0
  -28.4590    0.5220  -34.2630 C   0  0  2  0  0  0
  -29.5990   -0.1860  -33.5050 C   0  0  0  0  0  0
  -27.2820    0.8310  -33.3050 C   0  0  0  0  0  0
  -25.9780    1.9130  -35.0910 O   0  0  0  0  0  0
  -25.3340   -0.2830  -34.4040 C   0  0  0  0  0  0
  -24.9870    0.8470  -31.7200 O   0  0  0  0  0  0
  -23.7550    0.8960  -31.0250 C   0  0  0  0  0  0
  -22.8430   -0.0540  -31.6160 C   0  0  0  0  0  0
  -22.0350   -0.8840  -32.1250 C   0  0  0  0  0  0
  -19.4050    0.8350  -30.1110 C   0  0  0  0  0  0
  -19.6090    0.3670  -28.6260 C   0  0  0  0  0  0
  -20.9859    4.0841  -30.5769 H   0  0  0  0  0  0
  -24.4192    5.9968  -32.4038 H   0  0  0  0  0  0
  -18.2785   -2.6483  -30.4834 H   0  0  0  0  0  0
  -26.0802    3.3816  -33.2829 H   0  0  0  0  0  0
  -23.8896    1.5572  -33.2830 H   0  0  0  0  0  0
  -21.3800   -6.9869  -30.9684 H   0  0  0  0  0  0
  -19.6977   -6.7514  -30.3843 H   0  0  0  0  0  0
  -20.2263   -5.9991  -31.9275 H   0  0  0  0  0  0
  -21.9834   -5.0154  -29.8006 H   0  0  0  0  0  0
  -21.1635   -1.0755  -27.8917 H   0  0  0  0  0  0
  -17.9098    2.3374  -30.2757 H   0  0  0  0  0  0
  -19.4468    2.8762  -29.5181 H   0  0  0  0  0  0
  -19.5681    2.0793  -32.4294 H   0  0  0  0  0  0
  -18.7157    3.6128  -32.0441 H   0  0  0  0  0  0
  -23.5690    3.5634  -34.0095 H   0  0  0  0  0  0
  -26.4753    2.9211  -30.9348 H   0  0  0  0  0  0
  -25.8880    4.5957  -31.2130 H   0  0  0  0  0  0
  -24.7729    3.3504  -30.5553 H   0  0  0  0  0  0
  -22.2734    5.9344  -33.8031 H   0  0  0  0  0  0
  -23.4356    7.1728  -34.3881 H   0  0  0  0  0  0
  -23.2788    5.6076  -35.2554 H   0  0  0  0  0  0
  -27.8333    6.4986  -35.0057 H   0  0  0  0  0  0
  -29.2770    8.2321  -33.8307 H   0  0  0  0  0  0
  -28.4621    7.7979  -32.2899 H   0  0  0  0  0  0
  -27.4141    9.7850  -33.3314 H   0  0  0  0  0  0
  -27.0864    8.8342  -34.8197 H   0  0  0  0  0  0
  -26.2715    8.4000  -33.2789 H   0  0  0  0  0  0
  -30.8085    7.0149  -33.6461 H   0  0  0  0  0  0
  -29.7657    6.2903  -31.7486 H   0  0  0  0  0  0
  -28.6016    4.9231  -31.7023 H   0  0  0  0  0  0
  -30.3361    4.6144  -32.0532 H   0  0  0  0  0  0
  -27.7532    4.1315  -34.3501 H   0  0  0  0  0  0
  -29.1235    2.6927  -33.0592 H   0  0  0  0  0  0
  -31.2672    3.7301  -33.2370 H   0  0  0  0  0  0
  -31.3265    1.9541  -33.4994 H   0  0  0  0  0  0
  -31.4606    3.0736  -34.8978 H   0  0  0  0  0  0
  -27.2625    4.8090  -37.9409 H   0  0  0  0  0  0
  -26.6000    3.1407  -38.0071 H   0  0  0  0  0  0
  -26.3283    4.1579  -36.5517 H   0  0  0  0  0  0
  -29.5198    3.9206  -38.4521 H   0  0  0  0  0  0
  -30.2022    2.5854  -37.4630 H   0  0  0  0  0  0
  -28.7974    2.2783  -38.5396 H   0  0  0  0  0  0
  -29.8781    1.5017  -35.6496 H   0  0  0  0  0  0
  -28.0480   -0.1542  -35.0271 H   0  0  0  0  0  0
  -30.4252   -0.3975  -34.1997 H   0  0  0  0  0  0
  -29.9591    0.4640  -32.6940 H   0  0  0  0  0  0
  -29.2262   -1.1298  -33.0804 H   0  0  0  0  0  0
  -27.2309   -0.0213  -32.6115 H   0  0  0  0  0  0
  -27.5770    1.7356  -32.7530 H   0  0  0  0  0  0
  -26.3671    2.9363  -34.9842 H   0  0  0  0  0  0
  -25.2680   -0.9668  -33.5449 H   0  0  0  0  0  0
  -24.3302   -0.1257  -34.8254 H   0  0  0  0  0  0
  -25.9894   -0.7205  -35.1715 H   0  0  0  0  0  0
  -23.3331    1.9093  -31.0976 H   0  0  0  0  0  0
  -23.9203    0.6426  -29.9674 H   0  0  0  0  0  0
  -20.3616    0.6317  -30.6145 H   0  0  0  0  0  0
  -18.6272    0.1737  -30.5206 H   0  0  0  0  0  0
  -20.2172    1.1249  -28.1105 H   0  0  0  0  0  0
  -18.6195    0.3047  -28.1495 H   0  0  0  0  0  0
  -21.3968   -3.1678  -28.7335 H   0  0  0  0  0  0
  1 15  1  0  0  0
  1 16  1  0  0  0
  1 51  1  0  0  0
  2 19  1  0  0  0
  2 21  1  0  0  0
  2 22  1  0  0  0
  2 52  1  0  0  0
  3 12  2  0  0  0
  3 53  1  0  0  0
  4  5  1  0  0  0
  4 19  1  0  0  0
  4 20  1  0  0  0
  4 54  1  0  0  0
  5  6  1  0  0  0
  5 45  1  0  0  0
  5 55  1  0  0  0
  6 42  1  0  0  0
  6 43  1  0  0  0
  6 44  1  0  0  0
  7  8  1  0  0  0
  7 56  1  0  0  0
  7 57  1  0  0  0
  7 58  1  0  0  0
  8  9  1  0  0  0
  8 59  1  0  0  0
  9 10  2  0  0  0
  9 11  1  0  0  0
 11 12  1  0  0  0
 11110  1  0  0  0
 12 13  1  0  0  0
 13 50  1  0  0  0
 13 60  1  0  0  0
 14 15  1  0  0  0
 14 49  1  0  0  0
 14 61  1  0  0  0
 14 62  1  0  0  0
 15 63  1  0  0  0
 15 64  1  0  0  0
 16 17  2  0  0  0
 16 18  1  0  0  0
 18 19  1  0  0  0
 19 65  1  0  0  0
 20 66  1  0  0  0
 20 67  1  0  0  0
 20 68  1  0  0  0
 21 69  1  0  0  0
 21 70  1  0  0  0
 21 71  1  0  0  0
 22 23  2  0  0  0
 22 24  1  0  0  0
 24 25  1  0  0  0
 25 26  1  0  0  0
 25 28  1  0  0  0
 25 72  1  0  0  0
 26 27  1  0  0  0
 26 73  1  0  0  0
 26 74  1  0  0  0
 27 75  1  0  0  0
 27 76  1  0  0  0
 27 77  1  0  0  0
 28 29  1  0  0  0
 28 30  1  0  0  0
 28 31  1  0  0  0
 29 78  1  0  0  0
 30 79  1  0  0  0
 30 80  1  0  0  0
 30 81  1  0  0  0
 31 32  1  0  0  0
 31 34  1  0  0  0
 31 82  1  0  0  0
 32 33  1  0  0  0
 32 39  1  0  0  0
 32 83  1  0  0  0
 33 84  1  0  0  0
 33 85  1  0  0  0
 33 86  1  0  0  0
 34 35  1  0  0  0
 35 36  1  0  0  0
 35 37  1  0  0  0
 35 38  1  0  0  0
 36 87  1  0  0  0
 36 88  1  0  0  0
 36 89  1  0  0  0
 37 90  1  0  0  0
 37 91  1  0  0  0
 37 92  1  0  0  0
 38 39  1  0  0  0
 39 40  1  0  0  0
 39 93  1  0  0  0
 40 41  1  0  0  0
 40 42  1  0  0  0
 40 94  1  0  0  0
 41 95  1  0  0  0
 41 96  1  0  0  0
 41 97  1  0  0  0
 42 98  1  0  0  0
 42 99  1  0  0  0
 43100  1  0  0  0
 44101  1  0  0  0
 44102  1  0  0  0
 44103  1  0  0  0
 45 46  1  0  0  0
 46 47  1  0  0  0
 46104  1  0  0  0
 46105  1  0  0  0
 47 48  3  0  0  0
 49 50  1  0  0  0
 49106  1  0  0  0
 49107  1  0  0  0
 50108  1  0  0  0
 50109  1  0  0  0
M  CHG  1  11   1
M  END
> <s_m_source_file>
../4z2g_ligand.sdf

> <i_m_source_file_index>
1

> <s_epik_input>
W0NIM11bTkhdQyg9TylbTkhdL0MoPU5cW0hdKVtOSF1bQ0gyXVtDSDJdW0NIMl1bQ0gyXVtOSF1DKD1PKU9bQ0BIXShbQ0BASF0oW0NIM10pQyg9TylPW0NASF0oW0NIMl1bQ0gzXSlbQ0BdKFtPSF0pKFtDSDNdKVtDQEBIXTEyKVtDQEhdKFtDSDNdKVtDQEBIXShPW0NIMl1DI1tDSF0pW0NAQF0oW09IXSkoW0NIM10pW0NIMl1bQ0BASF0oW0NIM10pW0NAQEhdKFtDQEBIXTFbQ0gzXSlPQyhPMikoW0NIM10pW0NIM10=

> <s_epik_cmdline>
J2VwaWtfYXBwJywgJy1pbWFlJywgJ2xpZ2FuZF9wcm8ubWFlJywgJy1vbWFlJywgJ2xpZ2FuZF9wcmVwLm1hZScsICctbXMnLCAnMScsICctcGgnLCAnNycsICctcGh0JywgJzAuNScsICctbnQn

> <r_epik_Ionization_Penalty>
  0.0000

> <r_epik_Ionization_Penalty_Charging>
  0.0000

> <r_epik_Ionization_Penalty_Neutral>
  0.0000

> <r_epik_State_Penalty>
  0.0354

> <r_epik_Charging_Adjusted_Penalty>
0.0353709161985045

> <i_epik_Tot_Q>
1

> <i_epik_Tot_abs_Q>
1

> <s_epik_Chemistry_Notes>
This compound has an ester and may undergo hydrolysis at high or low pH. This compound has an imine and may undergo hydrolysis.

$$$$
