4z2h_ligand
                    3D
 Schrodinger Suite 2020-3.
104105  0  0  1  0            999 V2000
  -20.4980   -7.2570  -31.0630 C   0  0  0  0  0  0
  -21.0580   -6.1490  -30.3330 N   0  0  0  0  0  0
  -20.4210   -4.9820  -30.2190 C   0  0  0  0  0  0
  -19.3470   -4.7690  -30.8130 O   0  0  0  0  0  0
  -21.0290   -4.1290  -29.3680 N   0  3  0  0  0  0
  -20.6440   -2.8550  -29.1670 C   0  0  0  0  0  0
  -21.1480   -2.2520  -28.1800 N   0  0  0  0  0  0
  -19.6680   -2.2970  -29.9120 N   0  0  0  0  0  0
  -18.9220   -1.1090  -29.5430 C   0  0  0  0  0  0
  -19.0550    0.0150  -30.5770 C   0  0  0  0  0  0
  -20.3940    0.5700  -30.4700 N   0  0  0  0  0  0
  -21.1780    0.8960  -31.4860 C   0  0  0  0  0  0
  -20.9040    0.8830  -32.6890 O   0  0  0  0  0  0
  -22.5050    1.2500  -31.0340 O   0  0  0  0  0  0
  -23.2740    1.9860  -31.9970 C   0  0  1  0  0  0
  -24.6080    1.2890  -32.2480 C   0  0  2  0  0  0
  -25.3730    1.0970  -30.9340 C   0  0  0  0  0  0
  -23.4750    3.4200  -31.4380 C   0  0  1  0  0  0
  -22.1890    4.2330  -31.3950 C   0  0  0  0  0  0
  -24.4400    4.1920  -32.2690 C   0  0  0  0  0  0
  -24.1630    4.4790  -33.4180 O   0  0  0  0  0  0
  -25.7150    4.5090  -31.6500 O   0  0  0  0  0  0
  -26.6530    5.2940  -32.3900 C   0  0  2  0  0  0
  -26.8270    6.6520  -31.6970 C   0  0  0  0  0  0
  -25.5770    7.1900  -31.0260 C   0  0  0  0  0  0
  -27.9790    4.5100  -32.4950 C   0  0  2  0  0  0
  -29.0480    5.3930  -32.8230 O   0  0  0  0  0  0
  -28.3270    3.8160  -31.1770 C   0  0  0  0  0  0
  -27.8450    3.5580  -33.6680 C   0  0  1  0  0  0
  -28.9010    2.4630  -33.8160 C   0  0  1  0  0  0
  -30.3540    2.9540  -33.9130 C   0  0  0  0  0  0
  -27.7910    4.3790  -34.8340 O   0  0  0  0  0  0
  -27.5510    3.6530  -36.0520 C   0  0  0  0  0  0
  -26.1820    4.0560  -36.6260 C   0  0  0  0  0  0
  -28.6270    4.0080  -37.0930 C   0  0  0  0  0  0
  -27.4850    2.2210  -35.7820 O   0  0  0  0  0  0
  -28.5440    1.6430  -35.0560 C   0  0  1  0  0  0
  -28.1100    0.2120  -34.7710 C   0  0  2  0  0  0
  -29.3680   -0.5860  -34.4410 C   0  0  0  0  0  0
  -26.9950    0.0840  -33.6950 C   0  0  0  0  0  0
  -25.5270   -0.0290  -34.2080 C   0  0  2  0  0  0
  -25.1640    1.0630  -35.0710 O   0  0  0  0  0  0
  -25.3730   -1.3240  -34.9680 C   0  0  0  0  0  0
  -24.5030   -0.0160  -33.0560 C   0  0  2  0  0  0
  -24.7060   -1.1830  -32.2300 O   0  0  0  0  0  0
  -23.4720   -1.6380  -31.6970 C   0  0  0  0  0  0
  -23.5400   -3.0320  -31.2660 C   0  0  0  0  0  0
  -23.6070   -4.2440  -30.8650 C   0  0  0  0  0  0
  -21.1918   -8.1097  -31.0244 H   0  0  0  0  0  0
  -19.5372   -7.5453  -30.6117 H   0  0  0  0  0  0
  -20.3373   -6.9622  -32.1105 H   0  0  0  0  0  0
  -22.0401   -6.2500  -29.8480 H   0  0  0  0  0  0
  -21.9430   -2.7314  -27.5900 H   0  0  0  0  0  0
  -19.4518   -2.8095  -30.8610 H   0  0  0  0  0  0
  -19.2926   -0.7278  -28.5800 H   0  0  0  0  0  0
  -17.8548   -1.3597  -29.4519 H   0  0  0  0  0  0
  -18.3046    0.7927  -30.3717 H   0  0  0  0  0  0
  -18.8933   -0.3935  -31.5855 H   0  0  0  0  0  0
  -20.8362    0.7524  -29.4795 H   0  0  0  0  0  0
  -22.7062    1.9853  -32.9391 H   0  0  0  0  0  0
  -25.1822    1.9705  -32.8929 H   0  0  0  0  0  0
  -25.4210    2.0544  -30.3945 H   0  0  0  0  0  0
  -24.8541    0.3518  -30.3131 H   0  0  0  0  0  0
  -26.3929    0.7470  -31.1513 H   0  0  0  0  0  0
  -23.8703    3.3056  -30.4179 H   0  0  0  0  0  0
  -21.4397    3.7022  -30.7894 H   0  0  0  0  0  0
  -22.3921    5.2170  -30.9472 H   0  0  0  0  0  0
  -21.8058    4.3674  -32.4173 H   0  0  0  0  0  0
  -26.2288    5.4533  -33.3923 H   0  0  0  0  0  0
  -27.1377    7.4042  -32.4371 H   0  0  0  0  0  0
  -27.5954    6.5685  -30.9143 H   0  0  0  0  0  0
  -25.8001    8.1612  -30.5601 H   0  0  0  0  0  0
  -24.7835    7.3173  -31.7771 H   0  0  0  0  0  0
  -25.2412    6.4816  -30.2544 H   0  0  0  0  0  0
  -29.3420    6.1859  -32.1195 H   0  0  0  0  0  0
  -28.4070    4.5669  -30.3772 H   0  0  0  0  0  0
  -27.5375    3.0931  -30.9237 H   0  0  0  0  0  0
  -29.2867    3.2889  -31.2824 H   0  0  0  0  0  0
  -26.9058    2.9974  -33.5514 H   0  0  0  0  0  0
  -28.8699    1.8675  -32.8917 H   0  0  0  0  0  0
  -30.6026    3.5427  -33.0176 H   0  0  0  0  0  0
  -31.0296    2.0887  -33.9822 H   0  0  0  0  0  0
  -30.4697    3.5821  -34.8086 H   0  0  0  0  0  0
  -26.1801    5.1334  -36.8476 H   0  0  0  0  0  0
  -25.9914    3.4911  -37.5504 H   0  0  0  0  0  0
  -25.3955    3.8316  -35.8904 H   0  0  0  0  0  0
  -28.6332    5.0956  -37.2577 H   0  0  0  0  0  0
  -29.6129    3.6872  -36.7253 H   0  0  0  0  0  0
  -28.4042    3.4950  -38.0402 H   0  0  0  0  0  0
  -29.4435    1.6691  -35.6886 H   0  0  0  0  0  0
  -27.6427   -0.1970  -35.6789 H   0  0  0  0  0  0
  -30.1097   -0.4490  -35.2417 H   0  0  0  0  0  0
  -29.7876   -0.2315  -33.4880 H   0  0  0  0  0  0
  -29.1136   -1.6527  -34.3554 H   0  0  0  0  0  0
  -27.0128    0.9687  -33.0415 H   0  0  0  0  0  0
  -27.1685   -0.8201  -33.0929 H   0  0  0  0  0  0
  -25.7519    1.2659  -35.9783 H   0  0  0  0  0  0
  -26.0969   -1.3517  -35.7957 H   0  0  0  0  0  0
  -25.5579   -2.1708  -34.2907 H   0  0  0  0  0  0
  -24.3520   -1.3932  -35.3714 H   0  0  0  0  0  0
  -23.4726   -0.1127  -33.4288 H   0  0  0  0  0  0
  -22.6882   -1.5546  -32.4643 H   0  0  0  0  0  0
  -23.1997   -1.0233  -30.8264 H   0  0  0  0  0  0
  -21.8994   -4.4622  -28.7836 H   0  0  0  0  0  0
  1  2  1  0  0  0
  1 49  1  0  0  0
  1 50  1  0  0  0
  1 51  1  0  0  0
  2  3  1  0  0  0
  2 52  1  0  0  0
  3  4  2  0  0  0
  3  5  1  0  0  0
  5  6  1  0  0  0
  5104  1  0  0  0
  6  7  2  0  0  0
  6  8  1  0  0  0
  7 53  1  0  0  0
  8  9  1  0  0  0
  8 54  1  0  0  0
  9 10  1  0  0  0
  9 55  1  0  0  0
  9 56  1  0  0  0
 10 11  1  0  0  0
 10 57  1  0  0  0
 10 58  1  0  0  0
 11 12  1  0  0  0
 11 59  1  0  0  0
 12 13  2  0  0  0
 12 14  1  0  0  0
 14 15  1  0  0  0
 15 16  1  0  0  0
 15 18  1  0  0  0
 15 60  1  0  0  0
 16 17  1  0  0  0
 16 44  1  0  0  0
 16 61  1  0  0  0
 17 62  1  0  0  0
 17 63  1  0  0  0
 17 64  1  0  0  0
 18 19  1  0  0  0
 18 20  1  0  0  0
 18 65  1  0  0  0
 19 66  1  0  0  0
 19 67  1  0  0  0
 19 68  1  0  0  0
 20 21  2  0  0  0
 20 22  1  0  0  0
 22 23  1  0  0  0
 23 24  1  0  0  0
 23 26  1  0  0  0
 23 69  1  0  0  0
 24 25  1  0  0  0
 24 70  1  0  0  0
 24 71  1  0  0  0
 25 72  1  0  0  0
 25 73  1  0  0  0
 25 74  1  0  0  0
 26 27  1  0  0  0
 26 28  1  0  0  0
 26 29  1  0  0  0
 27 75  1  0  0  0
 28 76  1  0  0  0
 28 77  1  0  0  0
 28 78  1  0  0  0
 29 30  1  0  0  0
 29 32  1  0  0  0
 29 79  1  0  0  0
 30 31  1  0  0  0
 30 37  1  0  0  0
 30 80  1  0  0  0
 31 81  1  0  0  0
 31 82  1  0  0  0
 31 83  1  0  0  0
 32 33  1  0  0  0
 33 34  1  0  0  0
 33 35  1  0  0  0
 33 36  1  0  0  0
 34 84  1  0  0  0
 34 85  1  0  0  0
 34 86  1  0  0  0
 35 87  1  0  0  0
 35 88  1  0  0  0
 35 89  1  0  0  0
 36 37  1  0  0  0
 37 38  1  0  0  0
 37 90  1  0  0  0
 38 39  1  0  0  0
 38 40  1  0  0  0
 38 91  1  0  0  0
 39 92  1  0  0  0
 39 93  1  0  0  0
 39 94  1  0  0  0
 40 41  1  0  0  0
 40 95  1  0  0  0
 40 96  1  0  0  0
 41 42  1  0  0  0
 41 43  1  0  0  0
 41 44  1  0  0  0
 42 97  1  0  0  0
 43 98  1  0  0  0
 43 99  1  0  0  0
 43100  1  0  0  0
 44 45  1  0  0  0
 44101  1  0  0  0
 45 46  1  0  0  0
 46 47  1  0  0  0
 46102  1  0  0  0
 46103  1  0  0  0
 47 48  3  0  0  0
M  CHG  1   5   1
M  END
> <s_m_source_file>
../4z2h_ligand.sdf

> <i_m_source_file_index>
1

> <s_epik_input>
W0NIM11bTkhdQyg9TylbTkhdL0MoPU5cW0hdKVtOSF1bQ0gyXVtDSDJdW05IXUMoPU8pT1tDQEhdKFtDQEBIXShbQ0gzXSlDKD1PKU9bQ0BIXShbQ0gyXVtDSDNdKVtDQF0oW09IXSkoW0NIM10pW0NAQEhdMTIpW0NASF0oW0NIM10pW0NAQEhdKE9bQ0gyXUMjW0NIXSlbQ0BAXShbT0hdKShbQ0gzXSlbQ0gyXVtDQEBIXShbQ0gzXSlbQ0BASF0oW0NAQEhdMVtDSDNdKU9DKE8yKShbQ0gzXSlbQ0gzXQ==

> <s_epik_cmdline>
J2VwaWtfYXBwJywgJy1pbWFlJywgJ2xpZ2FuZF9wcm8ubWFlJywgJy1vbWFlJywgJ2xpZ2FuZF9wcmVwLm1hZScsICctbXMnLCAnMScsICctcGgnLCAnNycsICctcGh0JywgJzAuNScsICctbnQn

> <r_epik_Ionization_Penalty>
  0.0000

> <r_epik_Ionization_Penalty_Charging>
  0.0000

> <r_epik_Ionization_Penalty_Neutral>
  0.0000

> <r_epik_State_Penalty>
  0.0084

> <r_epik_Charging_Adjusted_Penalty>
0.00840271625279769

> <i_epik_Tot_Q>
1

> <i_epik_Tot_abs_Q>
1

> <s_epik_Chemistry_Notes>
This compound has an ester and may undergo hydrolysis at high or low pH. This compound has an imine and may undergo hydrolysis.

$$$$
