4z2i_ligand
                    3D
 Schrodinger Suite 2020-3.
107108  0  0  1  0            999 V2000
  -20.4380   -7.1320  -31.1320 C   0  0  0  0  0  0
  -20.9510   -6.0890  -30.2560 N   0  0  0  0  0  0
  -20.4070   -4.8990  -30.1100 C   0  0  0  0  0  0
  -19.4490   -4.5450  -30.8050 O   0  0  0  0  0  0
  -21.0180   -4.1200  -29.1540 N   0  3  0  0  0  0
  -20.7510   -2.8400  -28.9920 C   0  0  0  0  0  0
  -21.2100   -2.2440  -27.9340 N   0  0  0  0  0  0
  -19.8620   -2.2450  -29.8220 N   0  0  0  0  0  0
  -19.5970   -0.7930  -29.7920 C   0  0  0  0  0  0
  -19.3120   -0.2600  -31.2160 C   0  0  0  0  0  0
  -19.2790    1.2740  -31.3120 C   0  0  0  0  0  0
  -20.5980    1.8270  -31.0570 N   0  0  0  0  0  0
  -21.4820    1.9900  -32.0030 C   0  0  0  0  0  0
  -21.2530    1.7360  -33.1820 O   0  0  0  0  0  0
  -22.8220    2.2430  -31.5500 O   0  0  0  0  0  0
  -23.6890    2.5740  -32.6240 C   0  0  1  0  0  0
  -24.9130    1.6960  -32.4970 C   0  0  2  0  0  0
  -25.4930    1.6810  -31.0840 C   0  0  0  0  0  0
  -23.9940    4.0920  -32.5200 C   0  0  1  0  0  0
  -22.7730    4.9450  -32.7440 C   0  0  0  0  0  0
  -24.9650    4.5150  -33.5740 C   0  0  0  0  0  0
  -24.7360    4.4750  -34.7840 O   0  0  0  0  0  0
  -26.2890    4.7700  -33.1280 O   0  0  0  0  0  0
  -27.0550    5.1850  -34.2530 C   0  0  2  0  0  0
  -27.0190    6.7400  -34.3700 C   0  0  0  0  0  0
  -25.7160    7.2880  -34.9960 C   0  0  0  0  0  0
  -28.3500    4.4430  -33.9440 C   0  0  2  0  0  0
  -29.4430    5.1640  -34.4450 O   0  0  0  0  0  0
  -28.4680    4.2750  -32.4470 C   0  0  0  0  0  0
  -28.2880    3.1050  -34.6900 C   0  0  1  0  0  0
  -29.2270    1.9900  -34.3100 C   0  0  1  0  0  0
  -30.6980    2.3580  -34.4420 C   0  0  0  0  0  0
  -28.4600    3.3890  -36.0720 O   0  0  0  0  0  0
  -28.0340    2.3280  -36.8990 C   0  0  0  0  0  0
  -26.7460    2.7680  -37.5730 C   0  0  0  0  0  0
  -29.1240    2.1060  -37.9690 C   0  0  0  0  0  0
  -27.7910    1.1440  -36.0750 O   0  0  0  0  0  0
  -28.8710    0.7980  -35.2180 C   0  0  1  0  0  0
  -28.3270   -0.4310  -34.5070 C   0  0  2  0  0  0
  -29.4790   -1.1410  -33.8530 C   0  0  0  0  0  0
  -27.1510   -0.0250  -33.5690 C   0  0  0  0  0  0
  -25.7210   -0.1160  -34.1310 C   0  0  2  0  0  0
  -25.4850    0.7680  -35.2010 O   0  0  0  0  0  0
  -25.4230   -1.5280  -34.6400 C   0  0  0  0  0  0
  -24.6860    0.2700  -33.0550 C   0  0  2  0  0  0
  -24.7430   -0.6680  -31.9880 O   0  0  0  0  0  0
  -23.4230   -0.8250  -31.4260 C   0  0  0  0  0  0
  -23.0300   -2.2250  -31.5560 C   0  0  0  0  0  0
  -22.6450   -3.4230  -31.6750 C   0  0  0  0  0  0
  -21.0826   -8.0205  -31.0608 H   0  0  0  0  0  0
  -19.4146   -7.3961  -30.8274 H   0  0  0  0  0  0
  -20.4291   -6.7676  -32.1699 H   0  0  0  0  0  0
  -21.8557   -6.2696  -29.6569 H   0  0  0  0  0  0
  -21.9315   -2.7585  -27.2823 H   0  0  0  0  0  0
  -19.3280   -2.8869  -30.5381 H   0  0  0  0  0  0
  -20.4741   -0.2686  -29.3849 H   0  0  0  0  0  0
  -18.7223   -0.5930  -29.1557 H   0  0  0  0  0  0
  -18.3331   -0.6286  -31.5563 H   0  0  0  0  0  0
  -20.0955   -0.6123  -31.9030 H   0  0  0  0  0  0
  -18.5739    1.6728  -30.5679 H   0  0  0  0  0  0
  -18.9552    1.5714  -32.3203 H   0  0  0  0  0  0
  -20.8815    2.1253  -30.0369 H   0  0  0  0  0  0
  -23.2021    2.3467  -33.5838 H   0  0  0  0  0  0
  -25.6691    2.1847  -33.1290 H   0  0  0  0  0  0
  -25.6348    2.7144  -30.7349 H   0  0  0  0  0  0
  -24.8000    1.1577  -30.4088 H   0  0  0  0  0  0
  -26.4618    1.1601  -31.0908 H   0  0  0  0  0  0
  -24.3986    4.2684  -31.5125 H   0  0  0  0  0  0
  -22.0054    4.6893  -31.9988 H   0  0  0  0  0  0
  -23.0435    6.0064  -32.6424 H   0  0  0  0  0  0
  -22.3784    4.7623  -33.7544 H   0  0  0  0  0  0
  -26.6839    4.8854  -35.2443 H   0  0  0  0  0  0
  -27.8530    7.0795  -35.0018 H   0  0  0  0  0  0
  -27.1128    7.1853  -33.3686 H   0  0  0  0  0  0
  -25.7660    8.3858  -35.0444 H   0  0  0  0  0  0
  -25.5976    6.8812  -36.0111 H   0  0  0  0  0  0
  -24.8574    6.9869  -34.3778 H   0  0  0  0  0  0
  -29.6732    6.1625  -34.0450 H   0  0  0  0  0  0
  -28.5080    5.2649  -31.9690 H   0  0  0  0  0  0
  -27.5956    3.7209  -32.0703 H   0  0  0  0  0  0
  -29.3863    3.7169  -32.2119 H   0  0  0  0  0  0
  -27.2980    2.6771  -34.4739 H   0  0  0  0  0  0
  -29.0944    1.7708  -33.2403 H   0  0  0  0  0  0
  -30.9232    3.2102  -33.7840 H   0  0  0  0  0  0
  -31.3187    1.4972  -34.1526 H   0  0  0  0  0  0
  -30.9151    2.6325  -35.4848 H   0  0  0  0  0  0
  -26.9403    3.6581  -38.1894 H   0  0  0  0  0  0
  -26.3699    1.9549  -38.2113 H   0  0  0  0  0  0
  -25.9950    3.0096  -36.8064 H   0  0  0  0  0  0
  -29.2586    3.0289  -38.5522 H   0  0  0  0  0  0
  -30.0718    1.8413  -37.4775 H   0  0  0  0  0  0
  -28.8183    1.2896  -38.6399 H   0  0  0  0  0  0
  -29.7939    0.5731  -35.7726 H   0  0  0  0  0  0
  -27.9123   -1.1687  -35.2097 H   0  0  0  0  0  0
  -30.2424   -1.3753  -34.6095 H   0  0  0  0  0  0
  -29.9166   -0.4938  -33.0786 H   0  0  0  0  0  0
  -29.1211   -2.0735  -33.3923 H   0  0  0  0  0  0
  -27.2731    1.0239  -33.2609 H   0  0  0  0  0  0
  -27.1522   -0.6711  -32.6788 H   0  0  0  0  0  0
  -26.0982    0.7049  -36.1121 H   0  0  0  0  0  0
  -26.1608   -1.8043  -35.4077 H   0  0  0  0  0  0
  -25.4808   -2.2393  -33.8029 H   0  0  0  0  0  0
  -24.4132   -1.5553  -35.0753 H   0  0  0  0  0  0
  -23.6730    0.1917  -33.4766 H   0  0  0  0  0  0
  -22.7142   -0.1832  -31.9699 H   0  0  0  0  0  0
  -23.4395   -0.5359  -30.3648 H   0  0  0  0  0  0
  -21.7676   -4.5620  -28.4812 H   0  0  0  0  0  0
  1  2  1  0  0  0
  1 50  1  0  0  0
  1 51  1  0  0  0
  1 52  1  0  0  0
  2  3  1  0  0  0
  2 53  1  0  0  0
  3  4  2  0  0  0
  3  5  1  0  0  0
  5  6  1  0  0  0
  5107  1  0  0  0
  6  7  2  0  0  0
  6  8  1  0  0  0
  7 54  1  0  0  0
  8  9  1  0  0  0
  8 55  1  0  0  0
  9 10  1  0  0  0
  9 56  1  0  0  0
  9 57  1  0  0  0
 10 11  1  0  0  0
 10 58  1  0  0  0
 10 59  1  0  0  0
 11 12  1  0  0  0
 11 60  1  0  0  0
 11 61  1  0  0  0
 12 13  1  0  0  0
 12 62  1  0  0  0
 13 14  2  0  0  0
 13 15  1  0  0  0
 15 16  1  0  0  0
 16 17  1  0  0  0
 16 19  1  0  0  0
 16 63  1  0  0  0
 17 18  1  0  0  0
 17 45  1  0  0  0
 17 64  1  0  0  0
 18 65  1  0  0  0
 18 66  1  0  0  0
 18 67  1  0  0  0
 19 20  1  0  0  0
 19 21  1  0  0  0
 19 68  1  0  0  0
 20 69  1  0  0  0
 20 70  1  0  0  0
 20 71  1  0  0  0
 21 22  2  0  0  0
 21 23  1  0  0  0
 23 24  1  0  0  0
 24 25  1  0  0  0
 24 27  1  0  0  0
 24 72  1  0  0  0
 25 26  1  0  0  0
 25 73  1  0  0  0
 25 74  1  0  0  0
 26 75  1  0  0  0
 26 76  1  0  0  0
 26 77  1  0  0  0
 27 28  1  0  0  0
 27 29  1  0  0  0
 27 30  1  0  0  0
 28 78  1  0  0  0
 29 79  1  0  0  0
 29 80  1  0  0  0
 29 81  1  0  0  0
 30 31  1  0  0  0
 30 33  1  0  0  0
 30 82  1  0  0  0
 31 32  1  0  0  0
 31 38  1  0  0  0
 31 83  1  0  0  0
 32 84  1  0  0  0
 32 85  1  0  0  0
 32 86  1  0  0  0
 33 34  1  0  0  0
 34 35  1  0  0  0
 34 36  1  0  0  0
 34 37  1  0  0  0
 35 87  1  0  0  0
 35 88  1  0  0  0
 35 89  1  0  0  0
 36 90  1  0  0  0
 36 91  1  0  0  0
 36 92  1  0  0  0
 37 38  1  0  0  0
 38 39  1  0  0  0
 38 93  1  0  0  0
 39 40  1  0  0  0
 39 41  1  0  0  0
 39 94  1  0  0  0
 40 95  1  0  0  0
 40 96  1  0  0  0
 40 97  1  0  0  0
 41 42  1  0  0  0
 41 98  1  0  0  0
 41 99  1  0  0  0
 42 43  1  0  0  0
 42 44  1  0  0  0
 42 45  1  0  0  0
 43100  1  0  0  0
 44101  1  0  0  0
 44102  1  0  0  0
 44103  1  0  0  0
 45 46  1  0  0  0
 45104  1  0  0  0
 46 47  1  0  0  0
 47 48  1  0  0  0
 47105  1  0  0  0
 47106  1  0  0  0
 48 49  3  0  0  0
M  CHG  1   5   1
M  END
> <s_m_source_file>
../4z2i_ligand.sdf

> <i_m_source_file_index>
1

> <s_epik_input>
W0NIM11bTkhdQyg9TylbTkhdL0MoPU5cW0hdKVtOSF1bQ0gyXVtDSDJdW0NIMl1bTkhdQyg9TylPW0NASF0oW0NAQEhdKFtDSDNdKUMoPU8pT1tDQEhdKFtDSDJdW0NIM10pW0NAXShbT0hdKShbQ0gzXSlbQ0BASF0xMilbQ0BIXShbQ0gzXSlbQ0BASF0oT1tDSDJdQyNbQ0hdKVtDQEBdKFtPSF0pKFtDSDNdKVtDSDJdW0NAQEhdKFtDSDNdKVtDQEBIXShbQ0BASF0xW0NIM10pT0MoTzIpKFtDSDNdKVtDSDNd

> <s_epik_cmdline>
J2VwaWtfYXBwJywgJy1pbWFlJywgJ2xpZ2FuZF9wcm8ubWFlJywgJy1vbWFlJywgJ2xpZ2FuZF9wcmVwLm1hZScsICctbXMnLCAnMScsICctcGgnLCAnNycsICctcGh0JywgJzAuNScsICctbnQn

> <r_lp_tautomer_probability>
1

> <r_epik_Ionization_Penalty>
  0.0000

> <r_epik_Ionization_Penalty_Charging>
  0.0000

> <r_epik_Ionization_Penalty_Neutral>
  0.0000

> <r_epik_State_Penalty>
 -0.0000

> <r_epik_Charging_Adjusted_Penalty>
1.3365486818129e-06

> <i_epik_Tot_Q>
1

> <i_epik_Tot_abs_Q>
1

> <s_epik_Chemistry_Notes>
This compound has an ester and may undergo hydrolysis at high or low pH. This compound has an imine and may undergo hydrolysis.

$$$$
