4z2j_ligand
                    3D
 Schrodinger Suite 2020-3.
113114  0  0  1  0            999 V2000
  -26.4270    4.6660  -34.0630 C   0  0  0  0  0  0
  -25.1570    4.5720  -33.2540 C   0  0  1  0  0  0
  -24.6430    3.1260  -33.2220 C   0  0  2  0  0  0
  -25.7270    2.1280  -32.8410 C   0  0  1  0  0  0
  -25.2920    0.7050  -33.1740 C   0  0  2  0  0  0
  -26.1990    0.0610  -34.2130 C   0  0  1  0  0  0
  -26.3940    4.6960  -35.2800 O   0  0  0  0  0  0
  -27.7140    4.6860  -33.3680 O   0  0  0  0  0  0
  -23.6000    3.0950  -32.2700 O   0  0  0  0  0  0
  -22.3190    2.4610  -34.0400 O   0  0  0  0  0  0
  -19.5320   -4.6450  -30.6880 O   0  0  0  0  0  0
  -25.2550   -0.1440  -32.0120 O   0  0  0  0  0  0
  -20.6790   -7.1720  -31.1640 C   0  0  0  0  0  0
  -21.1890   -6.1310  -30.3030 N   0  0  0  0  0  0
  -20.5710   -4.9670  -30.1000 C   0  0  0  0  0  0
  -21.1840   -4.2110  -29.1730 N   0  3  0  0  0  0
  -20.8350   -2.9640  -28.8790 C   0  0  0  0  0  0
  -21.3830   -2.3710  -27.9080 N   0  0  0  0  0  0
  -19.9140   -2.3430  -29.5970 N   0  0  0  0  0  0
  -19.1930    1.6690  -31.5250 C   0  0  0  0  0  0
  -19.9350    2.4220  -32.6410 C   0  0  0  0  0  0
  -21.2240    2.8680  -32.1610 N   0  0  0  0  0  0
  -22.3230    2.8030  -32.8880 C   0  0  0  0  0  0
  -26.1710    2.3270  -31.3980 C   0  0  0  0  0  0
  -24.1040    5.5340  -33.7750 C   0  0  0  0  0  0
  -28.8320    5.0000  -34.2390 C   0  0  2  0  0  0
  -29.3160    6.4400  -34.0080 C   0  0  0  0  0  0
  -28.2290    7.4240  -34.3910 C   0  0  0  0  0  0
  -29.9370    3.9690  -34.0120 C   0  0  2  0  0  0
  -31.1690    4.4610  -34.5550 O   0  0  0  0  0  0
  -30.0740    3.7640  -32.5080 C   0  0  0  0  0  0
  -29.4980    2.7220  -34.7910 C   0  0  1  0  0  0
  -30.0440    1.3590  -34.3960 C   0  0  1  0  0  0
  -31.5700    1.2830  -34.3650 C   0  0  0  0  0  0
  -29.8300    2.9070  -36.1610 O   0  0  0  0  0  0
  -29.1280    2.0210  -37.0410 C   0  0  0  0  0  0
  -28.0090    2.7640  -37.7580 C   0  0  0  0  0  0
  -30.1530    1.4840  -38.0260 C   0  0  0  0  0  0
  -28.5050    0.9680  -36.2930 O   0  0  0  0  0  0
  -29.4170    0.3560  -35.3790 C   0  0  1  0  0  0
  -28.6200   -0.6950  -34.6390 C   0  0  2  0  0  0
  -29.6150   -1.5870  -33.9230 C   0  0  0  0  0  0
  -27.6110   -0.0620  -33.6540 C   0  0  0  0  0  0
  -26.2010    0.9050  -35.3700 O   0  0  0  0  0  0
  -25.6500   -1.3220  -34.5740 C   0  0  0  0  0  0
  -23.9430   -0.1440  -31.4270 C   0  0  0  0  0  0
  -23.1860   -1.3330  -31.8200 C   0  0  0  0  0  0
  -22.5710   -2.4250  -32.0930 C   0  0  0  0  0  0
  -19.3860    0.1480  -31.5810 C   0  0  0  0  0  0
  -18.6820   -0.4180  -30.3700 C   0  0  0  0  0  0
  -19.6150   -0.9620  -29.3190 C   0  0  0  0  0  0
  -25.3925    4.8812  -32.2249 H   0  0  0  0  0  0
  -24.2290    2.8149  -34.1925 H   0  0  0  0  0  0
  -26.6239    2.3166  -33.4492 H   0  0  0  0  0  0
  -24.2549    0.7606  -33.5364 H   0  0  0  0  0  0
  -21.3733   -8.0252  -31.1585 H   0  0  0  0  0  0
  -19.6936   -7.4987  -30.8002 H   0  0  0  0  0  0
  -20.5816   -6.7850  -32.1891 H   0  0  0  0  0  0
  -22.1399   -6.2754  -29.7692 H   0  0  0  0  0  0
  -22.1491   -2.8865  -27.3102 H   0  0  0  0  0  0
  -19.3784   -2.8709  -30.3998 H   0  0  0  0  0  0
  -18.1139    1.8674  -31.6036 H   0  0  0  0  0  0
  -19.5584    2.0117  -30.5457 H   0  0  0  0  0  0
  -19.3418    3.2947  -32.9516 H   0  0  0  0  0  0
  -20.0802    1.7523  -33.5015 H   0  0  0  0  0  0
  -21.3194    3.2843  -31.1473 H   0  0  0  0  0  0
  -26.4659    3.3758  -31.2464 H   0  0  0  0  0  0
  -25.3404    2.0781  -30.7212 H   0  0  0  0  0  0
  -27.0275    1.6707  -31.1841 H   0  0  0  0  0  0
  -24.5118    6.5556  -33.7816 H   0  0  0  0  0  0
  -23.8186    5.2465  -34.7977 H   0  0  0  0  0  0
  -23.2188    5.4968  -33.1231 H   0  0  0  0  0  0
  -28.4654    4.9261  -35.2735 H   0  0  0  0  0  0
  -30.2076    6.6303  -34.6234 H   0  0  0  0  0  0
  -29.5677    6.5763  -32.9459 H   0  0  0  0  0  0
  -28.5870    8.4502  -34.2214 H   0  0  0  0  0  0
  -27.9755    7.2950  -35.4536 H   0  0  0  0  0  0
  -27.3355    7.2410  -33.7760 H   0  0  0  0  0  0
  -31.6420    5.3554  -34.1233 H   0  0  0  0  0  0
  -30.3906    4.7062  -32.0369 H   0  0  0  0  0  0
  -29.1050    3.4529  -32.0906 H   0  0  0  0  0  0
  -30.8252    2.9850  -32.3111 H   0  0  0  0  0  0
  -28.4114    2.6651  -34.6293 H   0  0  0  0  0  0
  -29.7708    1.1392  -33.3534 H   0  0  0  0  0  0
  -31.9593    2.0202  -33.6473 H   0  0  0  0  0  0
  -31.8807    0.2733  -34.0584 H   0  0  0  0  0  0
  -31.9684    1.5009  -35.3669 H   0  0  0  0  0  0
  -28.4359    3.5870  -38.3499 H   0  0  0  0  0  0
  -27.4769    2.0700  -38.4253 H   0  0  0  0  0  0
  -27.3059    3.1717  -37.0168 H   0  0  0  0  0  0
  -30.6056    2.3214  -38.5772 H   0  0  0  0  0  0
  -30.9365    0.9389  -37.4792 H   0  0  0  0  0  0
  -29.6589    0.8030  -38.7346 H   0  0  0  0  0  0
  -30.2300   -0.0678  -35.9869 H   0  0  0  0  0  0
  -28.0345   -1.2872  -35.3576 H   0  0  0  0  0  0
  -30.3141   -2.0178  -34.6549 H   0  0  0  0  0  0
  -30.1755   -0.9933  -33.1859 H   0  0  0  0  0  0
  -29.0773   -2.3972  -33.4087 H   0  0  0  0  0  0
  -27.5950   -0.6931  -32.7532 H   0  0  0  0  0  0
  -27.9912    0.9372  -33.3950 H   0  0  0  0  0  0
  -26.5648    1.9404  -35.2949 H   0  0  0  0  0  0
  -25.6525   -1.9624  -33.6796 H   0  0  0  0  0  0
  -24.6212   -1.2214  -34.9501 H   0  0  0  0  0  0
  -26.2819   -1.7758  -35.3516 H   0  0  0  0  0  0
  -23.3925    0.7477  -31.7613 H   0  0  0  0  0  0
  -24.0304   -0.1313  -30.3306 H   0  0  0  0  0  0
  -20.4605   -0.0864  -31.5566 H   0  0  0  0  0  0
  -18.9463   -0.2435  -32.5102 H   0  0  0  0  0  0
  -18.0250   -1.2438  -30.6805 H   0  0  0  0  0  0
  -18.0802    0.3702  -29.8940 H   0  0  0  0  0  0
  -20.5466   -0.3772  -29.3229 H   0  0  0  0  0  0
  -19.1360   -0.8820  -28.3320 H   0  0  0  0  0  0
  -22.0317   -4.6192  -28.6032 H   0  0  0  0  0  0
  1  2  1  0  0  0
  1  7  2  0  0  0
  1  8  1  0  0  0
  2  3  1  0  0  0
  2 25  1  0  0  0
  2 52  1  0  0  0
  3  4  1  0  0  0
  3  9  1  0  0  0
  3 53  1  0  0  0
  4  5  1  0  0  0
  4 24  1  0  0  0
  4 54  1  0  0  0
  5  6  1  0  0  0
  5 12  1  0  0  0
  5 55  1  0  0  0
  6 43  1  0  0  0
  6 44  1  0  0  0
  6 45  1  0  0  0
  8 26  1  0  0  0
  9 23  1  0  0  0
 10 23  2  0  0  0
 11 15  2  0  0  0
 12 46  1  0  0  0
 13 14  1  0  0  0
 13 56  1  0  0  0
 13 57  1  0  0  0
 13 58  1  0  0  0
 14 15  1  0  0  0
 14 59  1  0  0  0
 15 16  1  0  0  0
 16 17  1  0  0  0
 16113  1  0  0  0
 17 18  2  0  0  0
 17 19  1  0  0  0
 18 60  1  0  0  0
 19 51  1  0  0  0
 19 61  1  0  0  0
 20 21  1  0  0  0
 20 49  1  0  0  0
 20 62  1  0  0  0
 20 63  1  0  0  0
 21 22  1  0  0  0
 21 64  1  0  0  0
 21 65  1  0  0  0
 22 23  1  0  0  0
 22 66  1  0  0  0
 24 67  1  0  0  0
 24 68  1  0  0  0
 24 69  1  0  0  0
 25 70  1  0  0  0
 25 71  1  0  0  0
 25 72  1  0  0  0
 26 27  1  0  0  0
 26 29  1  0  0  0
 26 73  1  0  0  0
 27 28  1  0  0  0
 27 74  1  0  0  0
 27 75  1  0  0  0
 28 76  1  0  0  0
 28 77  1  0  0  0
 28 78  1  0  0  0
 29 30  1  0  0  0
 29 31  1  0  0  0
 29 32  1  0  0  0
 30 79  1  0  0  0
 31 80  1  0  0  0
 31 81  1  0  0  0
 31 82  1  0  0  0
 32 33  1  0  0  0
 32 35  1  0  0  0
 32 83  1  0  0  0
 33 34  1  0  0  0
 33 40  1  0  0  0
 33 84  1  0  0  0
 34 85  1  0  0  0
 34 86  1  0  0  0
 34 87  1  0  0  0
 35 36  1  0  0  0
 36 37  1  0  0  0
 36 38  1  0  0  0
 36 39  1  0  0  0
 37 88  1  0  0  0
 37 89  1  0  0  0
 37 90  1  0  0  0
 38 91  1  0  0  0
 38 92  1  0  0  0
 38 93  1  0  0  0
 39 40  1  0  0  0
 40 41  1  0  0  0
 40 94  1  0  0  0
 41 42  1  0  0  0
 41 43  1  0  0  0
 41 95  1  0  0  0
 42 96  1  0  0  0
 42 97  1  0  0  0
 42 98  1  0  0  0
 43 99  1  0  0  0
 43100  1  0  0  0
 44101  1  0  0  0
 45102  1  0  0  0
 45103  1  0  0  0
 45104  1  0  0  0
 46 47  1  0  0  0
 46105  1  0  0  0
 46106  1  0  0  0
 47 48  3  0  0  0
 49 50  1  0  0  0
 49107  1  0  0  0
 49108  1  0  0  0
 50 51  1  0  0  0
 50109  1  0  0  0
 50110  1  0  0  0
 51111  1  0  0  0
 51112  1  0  0  0
M  CHG  1  16   1
M  END
> <s_m_source_file>
../4z2j_ligand.sdf

> <i_m_source_file_index>
1

> <s_epik_input>
TzFDKFtDSDNdKShbQ0gzXSlPW0NASF0oW0NAQEhdMltDSDNdKVtDQEhdKFtDSDNdKVtDSDJdW0NAXShbT0hdKShbQ0gzXSlbQ0BIXShPW0NIMl1DI1tDSF0pW0NAQEhdKFtDSDNdKVtDQEBIXShbQ0BASF0oW0NIM10pQyg9TylPW0NASF0oW0NIMl1bQ0gzXSlbQ0BdKFtPSF0pKFtDSDNdKVtDQEhdMTIpT0MoPU8pW05IXVtDSDJdW0NIMl1bQ0gyXVtDSDJdW0NIMl1bTkhdQyg9TlxbSF0pXFtOSF1DKD1PKVtOSF1bQ0gzXQ==

> <s_epik_cmdline>
J2VwaWtfYXBwJywgJy1pbWFlJywgJ2xpZ2FuZF9wcm8ubWFlJywgJy1vbWFlJywgJ2xpZ2FuZF9wcmVwLm1hZScsICctbXMnLCAnMScsICctcGgnLCAnNycsICctcGh0JywgJzAuNScsICctbnQn

> <r_epik_Ionization_Penalty>
  0.0000

> <r_epik_Ionization_Penalty_Charging>
  0.0000

> <r_epik_Ionization_Penalty_Neutral>
  0.0000

> <r_epik_State_Penalty>
  0.0349

> <r_epik_Charging_Adjusted_Penalty>
0.0348882622180729

> <i_epik_Tot_Q>
1

> <i_epik_Tot_abs_Q>
1

> <s_epik_Chemistry_Notes>
This compound has an ester and may undergo hydrolysis at high or low pH. This compound has an imine and may undergo hydrolysis.

$$$$
