4z2k_ligand
                    3D
 Schrodinger Suite 2020-3.
119120  0  0  1  0            999 V2000
  -20.7070   -7.0260  -31.1300 C   0  0  0  0  0  0
  -21.1590   -6.0300  -30.1910 N   0  0  0  0  0  0
  -20.5120   -4.8720  -29.9760 C   0  0  0  0  0  0
  -19.4520   -4.6220  -30.5840 O   0  0  0  0  0  0
  -21.1030   -4.1000  -29.0310 N   0  3  0  0  0  0
  -20.6500   -2.9120  -28.5980 C   0  0  0  0  0  0
  -19.6820   -2.2580  -29.1240 N   0  0  0  0  0  0
  -21.1550   -2.4350  -27.4700 N   0  0  0  0  0  0
  -22.9260    3.5860  -26.8150 C   0  0  0  0  0  0
  -23.2030    5.0740  -27.0210 C   0  0  0  0  0  0
  -23.9510    5.5560  -25.8740 N   0  0  0  0  0  0
  -23.3620    5.7200  -24.6890 C   0  0  0  0  0  0
  -22.1490    5.8180  -24.5890 O   0  0  0  0  0  0
  -24.2110    5.6240  -23.4950 O   0  0  0  0  0  0
  -23.5970    5.7190  -22.1880 C   0  0  1  0  0  0
  -24.6580    6.3850  -21.2720 C   0  0  2  0  0  0
  -25.9200    5.5220  -21.1480 C   0  0  0  0  0  0
  -23.0560    4.3470  -21.6610 C   0  0  1  0  0  0
  -21.8440    3.7410  -22.3960 C   0  0  0  0  0  0
  -22.6810    4.3940  -20.2040 C   0  0  0  0  0  0
  -21.5180    4.5040  -19.8540 O   0  0  0  0  0  0
  -23.7510    4.2350  -19.2260 O   0  0  0  0  0  0
  -23.4040    4.1630  -17.8350 C   0  0  2  0  0  0
  -23.3270    2.7030  -17.3580 C   0  0  0  0  0  0
  -21.8990    2.2620  -17.0770 C   0  0  0  0  0  0
  -24.4300    5.0260  -17.0780 C   0  0  2  0  0  0
  -24.3530    4.7210  -15.6840 O   0  0  0  0  0  0
  -25.8780    4.7450  -17.5140 C   0  0  0  0  0  0
  -24.0160    6.4940  -17.3370 C   0  0  1  0  0  0
  -25.0130    7.5590  -16.8580 C   0  0  1  0  0  0
  -25.3060    7.5240  -15.3620 C   0  0  0  0  0  0
  -22.6980    6.7680  -16.8140 O   0  0  0  0  0  0
  -22.1480    8.0420  -17.1760 C   0  0  0  0  0  0
  -20.9620    7.8630  -18.1190 C   0  0  0  0  0  0
  -21.5590    8.6770  -15.9250 C   0  0  0  0  0  0
  -23.1480    8.8810  -17.8210 O   0  0  0  0  0  0
  -24.4990    8.9430  -17.2770 C   0  0  1  0  0  0
  -25.4880    9.6250  -18.2520 C   0  0  2  0  0  0
  -26.7930   10.0270  -17.5440 C   0  0  0  0  0  0
  -25.8050    8.7620  -19.4850 C   0  0  0  0  0  0
  -24.8100    8.9120  -20.6390 C   0  0  2  0  0  0
  -23.4790    8.8010  -20.1240 O   0  0  0  0  0  0
  -24.9480   10.3140  -21.2450 C   0  0  0  0  0  0
  -25.0210    7.8210  -21.7200 C   0  0  2  0  0  0
  -26.3870    7.8700  -22.1750 O   0  0  0  0  0  0
  -26.5930    7.8500  -23.6000 C   0  0  0  0  0  0
  -27.8770    8.5040  -23.9530 C   0  0  0  0  0  0
  -28.9810    9.0610  -24.2800 C   0  0  0  0  0  0
  -22.0210    3.0110  -27.8950 C   0  0  0  0  0  0
  -22.4000    1.5600  -28.1890 C   0  0  0  0  0  0
  -21.2230    0.5880  -28.0410 C   0  0  0  0  0  0
  -21.1250   -0.0580  -26.6560 C   0  0  0  0  0  0
  -20.4370   -1.4210  -26.6970 C   0  0  0  0  0  0
  -21.4027   -7.8780  -31.1240 H   0  0  0  0  0  0
  -19.7025   -7.3708  -30.8436 H   0  0  0  0  0  0
  -20.6710   -6.5892  -32.1389 H   0  0  0  0  0  0
  -22.0761   -6.1999  -29.6078 H   0  0  0  0  0  0
  -19.2255   -2.6098  -30.0609 H   0  0  0  0  0  0
  -22.1265   -2.8105  -27.1162 H   0  0  0  0  0  0
  -22.4335    3.4359  -25.8429 H   0  0  0  0  0  0
  -23.8750    3.0302  -26.8349 H   0  0  0  0  0  0
  -22.2496    5.6160  -27.1069 H   0  0  0  0  0  0
  -23.7886    5.2140  -27.9416 H   0  0  0  0  0  0
  -25.0206    5.7921  -25.9747 H   0  0  0  0  0  0
  -22.7028    6.3506  -22.2952 H   0  0  0  0  0  0
  -24.2036    6.4599  -20.2730 H   0  0  0  0  0  0
  -25.6403    4.5071  -20.8291 H   0  0  0  0  0  0
  -26.4280    5.4732  -22.1224 H   0  0  0  0  0  0
  -26.5967    5.9668  -20.4035 H   0  0  0  0  0  0
  -23.9153    3.6791  -21.8212 H   0  0  0  0  0  0
  -22.0606    3.6811  -23.4728 H   0  0  0  0  0  0
  -21.6452    2.7321  -22.0053 H   0  0  0  0  0  0
  -20.9614    4.3774  -22.2343 H   0  0  0  0  0  0
  -22.3908    4.5734  -17.7123 H   0  0  0  0  0  0
  -23.9073    2.5892  -16.4305 H   0  0  0  0  0  0
  -23.7414    2.0416  -18.1332 H   0  0  0  0  0  0
  -21.8982    1.2148  -16.7402 H   0  0  0  0  0  0
  -21.4659    2.8999  -16.2924 H   0  0  0  0  0  0
  -21.3000    2.3523  -17.9952 H   0  0  0  0  0  0
  -24.6149    3.7144  -15.3259 H   0  0  0  0  0  0
  -26.1245    3.6925  -17.3104 H   0  0  0  0  0  0
  -25.9819    4.9443  -18.5908 H   0  0  0  0  0  0
  -26.5631    5.3973  -16.9526 H   0  0  0  0  0  0
  -23.9355    6.6056  -18.4284 H   0  0  0  0  0  0
  -25.9795    7.3336  -17.3325 H   0  0  0  0  0  0
  -25.6725    6.5250  -15.0834 H   0  0  0  0  0  0
  -26.0717    8.2760  -15.1207 H   0  0  0  0  0  0
  -24.3851    7.7458  -14.8027 H   0  0  0  0  0  0
  -20.2027    7.2296  -17.6370 H   0  0  0  0  0  0
  -20.5262    8.8460  -18.3507 H   0  0  0  0  0  0
  -21.3021    7.3843  -19.0491 H   0  0  0  0  0  0
  -20.8135    7.9980  -15.4854 H   0  0  0  0  0  0
  -22.3612    8.8626  -15.1956 H   0  0  0  0  0  0
  -21.0765    9.6295  -16.1897 H   0  0  0  0  0  0
  -24.3750    9.5665  -16.3793 H   0  0  0  0  0  0
  -24.9841   10.5348  -18.6102 H   0  0  0  0  0  0
  -26.5578   10.6435  -16.6639 H   0  0  0  0  0  0
  -27.3306    9.1220  -17.2246 H   0  0  0  0  0  0
  -27.4238   10.6029  -18.2371 H   0  0  0  0  0  0
  -25.8047    7.6998  -19.1990 H   0  0  0  0  0  0
  -26.7949    9.0353  -19.8792 H   0  0  0  0  0  0
  -23.1328    9.4919  -19.3412 H   0  0  0  0  0  0
  -24.7945   11.0694  -20.4602 H   0  0  0  0  0  0
  -25.9541   10.4305  -21.6743 H   0  0  0  0  0  0
  -24.1945   10.4477  -22.0351 H   0  0  0  0  0  0
  -24.3836    8.0592  -22.5843 H   0  0  0  0  0  0
  -25.7718    8.3874  -24.0968 H   0  0  0  0  0  0
  -26.6157    6.8083  -23.9526 H   0  0  0  0  0  0
  -22.1273    3.6031  -28.8159 H   0  0  0  0  0  0
  -20.9756    3.0467  -27.5547 H   0  0  0  0  0  0
  -23.1872    1.2381  -27.4914 H   0  0  0  0  0  0
  -22.7701    1.4797  -29.2218 H   0  0  0  0  0  0
  -21.3250   -0.2257  -28.7742 H   0  0  0  0  0  0
  -20.2795    1.1250  -28.2182 H   0  0  0  0  0  0
  -20.5455    0.5951  -25.9870 H   0  0  0  0  0  0
  -22.1355   -0.1997  -26.2452 H   0  0  0  0  0  0
  -20.3321   -1.7599  -25.6558 H   0  0  0  0  0  0
  -19.4397   -1.2649  -27.1340 H   0  0  0  0  0  0
  -22.0343   -4.4348  -28.5507 H   0  0  0  0  0  0
  1  2  1  0  0  0
  1 54  1  0  0  0
  1 55  1  0  0  0
  1 56  1  0  0  0
  2  3  1  0  0  0
  2 57  1  0  0  0
  3  4  2  0  0  0
  3  5  1  0  0  0
  5  6  1  0  0  0
  5119  1  0  0  0
  6  7  2  0  0  0
  6  8  1  0  0  0
  7 58  1  0  0  0
  8 53  1  0  0  0
  8 59  1  0  0  0
  9 10  1  0  0  0
  9 49  1  0  0  0
  9 60  1  0  0  0
  9 61  1  0  0  0
 10 11  1  0  0  0
 10 62  1  0  0  0
 10 63  1  0  0  0
 11 12  1  0  0  0
 11 64  1  0  0  0
 12 13  2  0  0  0
 12 14  1  0  0  0
 14 15  1  0  0  0
 15 16  1  0  0  0
 15 18  1  0  0  0
 15 65  1  0  0  0
 16 17  1  0  0  0
 16 44  1  0  0  0
 16 66  1  0  0  0
 17 67  1  0  0  0
 17 68  1  0  0  0
 17 69  1  0  0  0
 18 19  1  0  0  0
 18 20  1  0  0  0
 18 70  1  0  0  0
 19 71  1  0  0  0
 19 72  1  0  0  0
 19 73  1  0  0  0
 20 21  2  0  0  0
 20 22  1  0  0  0
 22 23  1  0  0  0
 23 24  1  0  0  0
 23 26  1  0  0  0
 23 74  1  0  0  0
 24 25  1  0  0  0
 24 75  1  0  0  0
 24 76  1  0  0  0
 25 77  1  0  0  0
 25 78  1  0  0  0
 25 79  1  0  0  0
 26 27  1  0  0  0
 26 28  1  0  0  0
 26 29  1  0  0  0
 27 80  1  0  0  0
 28 81  1  0  0  0
 28 82  1  0  0  0
 28 83  1  0  0  0
 29 30  1  0  0  0
 29 32  1  0  0  0
 29 84  1  0  0  0
 30 31  1  0  0  0
 30 37  1  0  0  0
 30 85  1  0  0  0
 31 86  1  0  0  0
 31 87  1  0  0  0
 31 88  1  0  0  0
 32 33  1  0  0  0
 33 34  1  0  0  0
 33 35  1  0  0  0
 33 36  1  0  0  0
 34 89  1  0  0  0
 34 90  1  0  0  0
 34 91  1  0  0  0
 35 92  1  0  0  0
 35 93  1  0  0  0
 35 94  1  0  0  0
 36 37  1  0  0  0
 37 38  1  0  0  0
 37 95  1  0  0  0
 38 39  1  0  0  0
 38 40  1  0  0  0
 38 96  1  0  0  0
 39 97  1  0  0  0
 39 98  1  0  0  0
 39 99  1  0  0  0
 40 41  1  0  0  0
 40100  1  0  0  0
 40101  1  0  0  0
 41 42  1  0  0  0
 41 43  1  0  0  0
 41 44  1  0  0  0
 42102  1  0  0  0
 43103  1  0  0  0
 43104  1  0  0  0
 43105  1  0  0  0
 44 45  1  0  0  0
 44106  1  0  0  0
 45 46  1  0  0  0
 46 47  1  0  0  0
 46107  1  0  0  0
 46108  1  0  0  0
 47 48  3  0  0  0
 49 50  1  0  0  0
 49109  1  0  0  0
 49110  1  0  0  0
 50 51  1  0  0  0
 50111  1  0  0  0
 50112  1  0  0  0
 51 52  1  0  0  0
 51113  1  0  0  0
 51114  1  0  0  0
 52 53  1  0  0  0
 52115  1  0  0  0
 52116  1  0  0  0
 53117  1  0  0  0
 53118  1  0  0  0
M  CHG  1   5   1
M  END
> <s_m_source_file>
../4z2k_ligand.sdf

> <i_m_source_file_index>
1

> <s_epik_input>
W0NIM11bTkhdQyg9TylbTkhdL0MoPU5cW0hdKVtOSF1bQ0gyXVtDSDJdW0NIMl1bQ0gyXVtDSDJdW0NIMl1bQ0gyXVtOSF1DKD1PKU9bQ0BIXShbQ0BASF0oW0NIM10pQyg9TylPW0NASF0oW0NIMl1bQ0gzXSlbQ0BdKFtPSF0pKFtDSDNdKVtDQEBIXTEyKVtDQEhdKFtDSDNdKVtDQEBIXShPW0NIMl1DI1tDSF0pW0NAQF0oW09IXSkoW0NIM10pW0NIMl1bQ0BASF0oW0NIM10pW0NAQEhdKFtDQEBIXTFbQ0gzXSlPQyhPMikoW0NIM10pW0NIM10=

> <s_epik_cmdline>
J2VwaWtfYXBwJywgJy1pbWFlJywgJ2xpZ2FuZF9wcm8ubWFlJywgJy1vbWFlJywgJ2xpZ2FuZF9wcmVwLm1hZScsICctbXMnLCAnMScsICctcGgnLCAnNycsICctcGh0JywgJzAuNScsICctbnQn

> <r_epik_Ionization_Penalty>
  0.0000

> <r_epik_Ionization_Penalty_Charging>
  0.0000

> <r_epik_Ionization_Penalty_Neutral>
  0.0000

> <r_epik_State_Penalty>
  0.0334

> <r_epik_Charging_Adjusted_Penalty>
0.0334454742723052

> <i_epik_Tot_Q>
1

> <i_epik_Tot_abs_Q>
1

> <s_epik_Chemistry_Notes>
This compound has an ester and may undergo hydrolysis at high or low pH. This compound has an imine and may undergo hydrolysis.

$$$$
