4z2l_ligand
                    3D
 Schrodinger Suite 2020-3.
100100  0  0  1  0            999 V2000
  -20.1550    1.6920  -30.9400 N   0  0  0  0  0  0
  -23.6620    4.1430  -31.6140 C   0  0  2  0  0  0
  -23.3490    2.7670  -32.2130 C   0  0  1  0  0  0
  -20.9580    1.9120  -33.0160 O   0  0  0  0  0  0
  -24.3800    0.5970  -33.1540 C   0  0  1  0  0  0
  -24.6240    5.1800  -33.4780 O   0  0  0  0  0  0
  -24.7770    4.8190  -32.3310 C   0  0  0  0  0  0
  -22.4680    5.0710  -31.6260 C   0  0  0  0  0  0
  -22.4340    2.1870  -31.2900 O   0  0  0  0  0  0
  -21.0980    2.0220  -31.8030 C   0  0  0  0  0  0
  -18.8400    1.1320  -31.2380 C   0  0  0  0  0  0
  -19.0180   -0.3890  -31.1610 C   0  0  0  0  0  0
  -19.3310   -0.8670  -29.7310 C   0  0  0  0  0  0
  -19.7200   -2.2790  -29.7910 N   0  0  0  0  0  0
  -20.5740   -2.8860  -29.0600 C   0  0  0  0  0  0
  -21.1340   -2.3130  -28.0940 N   0  0  0  0  0  0
  -20.8540   -4.1770  -29.1810 N   0  3  0  0  0  0
  -20.3230   -4.9570  -30.1310 C   0  0  0  0  0  0
  -19.3780   -4.5760  -30.8010 O   0  0  0  0  0  0
  -20.7930   -6.1250  -30.2430 N   0  0  0  0  0  0
  -20.3870   -7.2060  -31.1250 C   0  0  0  0  0  0
  -26.0550    4.9280  -31.6460 O   0  0  0  0  0  0
  -27.1340    5.5540  -32.3330 C   0  0  2  0  0  0
  -27.6140    6.6950  -31.4360 C   0  0  0  0  0  0
  -26.4300    7.4190  -30.8080 C   0  0  0  0  0  0
  -28.2390    4.5280  -32.5740 C   0  0  2  0  0  0
  -29.4480    5.2280  -32.8520 O   0  0  0  0  0  0
  -28.4860    3.6820  -31.3300 C   0  0  0  0  0  0
  -27.9030    3.6650  -33.7850 C   0  0  2  0  0  0
  -27.8820    4.5270  -34.9120 O   0  0  0  0  0  0
  -27.4900    2.3910  -36.0410 O   0  0  0  0  0  0
  -28.4690    1.6910  -35.2860 C   0  0  2  0  0  0
  -28.8860    2.5230  -34.0790 C   0  0  2  0  0  0
  -30.2780    3.0630  -34.3520 C   0  0  0  0  0  0
  -27.9000    0.3370  -34.9060 C   0  0  2  0  0  0
  -29.0840   -0.5500  -34.5390 C   0  0  0  0  0  0
  -26.8560    0.4320  -33.7820 C   0  0  0  0  0  0
  -25.4030    0.4870  -34.2800 C   0  0  1  0  0  0
  -25.1530    1.6330  -35.0590 O   0  0  0  0  0  0
  -25.0970   -0.7200  -35.1340 C   0  0  0  0  0  0
  -24.5970    1.8810  -32.3520 C   0  0  1  0  0  0
  -25.1650    1.5240  -30.9880 C   0  0  0  0  0  0
  -24.4700   -0.5770  -32.3300 O   0  0  0  0  0  0
  -23.1720   -0.9990  -31.9280 C   0  0  0  0  0  0
  -23.1940   -2.4030  -31.5010 C   0  0  0  0  0  0
  -23.2170   -3.6360  -31.1590 C   0  0  0  0  0  0
  -20.4484    1.8819  -29.8970 H   0  0  0  0  0  0
  -23.9693    3.9643  -30.5730 H   0  0  0  0  0  0
  -22.8843    2.8317  -33.2079 H   0  0  0  0  0  0
  -23.3504    0.5970  -33.5411 H   0  0  0  0  0  0
  -21.6275    4.5938  -31.1008 H   0  0  0  0  0  0
  -22.7299    6.0120  -31.1200 H   0  0  0  0  0  0
  -22.1782    5.2822  -32.6659 H   0  0  0  0  0  0
  -18.5252    1.4501  -32.2429 H   0  0  0  0  0  0
  -18.1120    1.4902  -30.4952 H   0  0  0  0  0  0
  -19.8499   -0.6943  -31.8128 H   0  0  0  0  0  0
  -18.0927   -0.8837  -31.4915 H   0  0  0  0  0  0
  -18.4370   -0.7490  -29.1011 H   0  0  0  0  0  0
  -20.1540   -0.2669  -29.3157 H   0  0  0  0  0  0
  -19.2565   -2.9462  -30.5327 H   0  0  0  0  0  0
  -21.7979   -2.8822  -27.4267 H   0  0  0  0  0  0
  -21.6265   -6.2720  -29.5404 H   0  0  0  0  0  0
  -21.0247   -8.0843  -30.9461 H   0  0  0  0  0  0
  -19.3376   -7.4679  -30.9249 H   0  0  0  0  0  0
  -20.4914   -6.8841  -32.1716 H   0  0  0  0  0  0
  -26.7686    5.9230  -33.3027 H   0  0  0  0  0  0
  -28.1935    7.4131  -32.0347 H   0  0  0  0  0  0
  -28.2489    6.2892  -30.6346 H   0  0  0  0  0  0
  -26.7968    8.2347  -30.1676 H   0  0  0  0  0  0
  -25.7915    7.8345  -31.6015 H   0  0  0  0  0  0
  -25.8468    6.7105  -30.2014 H   0  0  0  0  0  0
  -29.8718    5.9128  -32.1027 H   0  0  0  0  0  0
  -28.7245    4.3394  -30.4809 H   0  0  0  0  0  0
  -27.5832    3.0975  -31.0989 H   0  0  0  0  0  0
  -29.3284    2.9987  -31.5126 H   0  0  0  0  0  0
  -26.9103    3.2191  -33.6244 H   0  0  0  0  0  0
  -27.2370    5.4181  -34.9109 H   0  0  0  0  0  0
  -27.7048    3.4022  -36.4170 H   0  0  0  0  0  0
  -29.3480    1.5527  -35.9326 H   0  0  0  0  0  0
  -28.8920    1.8822  -33.1849 H   0  0  0  0  0  0
  -30.6099    3.6703  -33.4970 H   0  0  0  0  0  0
  -30.9745    2.2242  -34.4984 H   0  0  0  0  0  0
  -30.2584    3.6858  -35.2585 H   0  0  0  0  0  0
  -27.3557   -0.0945  -35.7590 H   0  0  0  0  0  0
  -29.7943   -0.5792  -35.3784 H   0  0  0  0  0  0
  -29.5852   -0.1427  -33.6485 H   0  0  0  0  0  0
  -28.7269   -1.5682  -34.3252 H   0  0  0  0  0  0
  -27.0321    1.3450  -33.1943 H   0  0  0  0  0  0
  -26.9412   -0.4477  -33.1271 H   0  0  0  0  0  0
  -25.3114    2.6340  -34.6314 H   0  0  0  0  0  0
  -25.2823   -1.6361  -34.5539 H   0  0  0  0  0  0
  -24.0426   -0.6906  -35.4460 H   0  0  0  0  0  0
  -25.7432   -0.7126  -36.0242 H   0  0  0  0  0  0
  -25.3193    2.4890  -32.9165 H   0  0  0  0  0  0
  -25.3239    2.4432  -30.4050 H   0  0  0  0  0  0
  -24.4582    0.8700  -30.4562 H   0  0  0  0  0  0
  -26.1240    1.0005  -31.1158 H   0  0  0  0  0  0
  -22.4746   -0.8944  -32.7722 H   0  0  0  0  0  0
  -22.8277   -0.3768  -31.0887 H   0  0  0  0  0  0
  -21.5534   -4.6561  -28.4801 H   0  0  0  0  0  0
  1 10  1  0  0  0
  1 11  1  0  0  0
  1 47  1  0  0  0
  2  3  1  0  0  0
  2  7  1  0  0  0
  2  8  1  0  0  0
  2 48  1  0  0  0
  3  9  1  0  0  0
  3 41  1  0  0  0
  3 49  1  0  0  0
  4 10  2  0  0  0
  5 38  1  0  0  0
  5 41  1  0  0  0
  5 43  1  0  0  0
  5 50  1  0  0  0
  6  7  2  0  0  0
  7 22  1  0  0  0
  8 51  1  0  0  0
  8 52  1  0  0  0
  8 53  1  0  0  0
  9 10  1  0  0  0
 11 12  1  0  0  0
 11 54  1  0  0  0
 11 55  1  0  0  0
 12 13  1  0  0  0
 12 56  1  0  0  0
 12 57  1  0  0  0
 13 14  1  0  0  0
 13 58  1  0  0  0
 13 59  1  0  0  0
 14 15  1  0  0  0
 14 60  1  0  0  0
 15 16  2  0  0  0
 15 17  1  0  0  0
 16 61  1  0  0  0
 17 18  1  0  0  0
 17100  1  0  0  0
 18 19  2  0  0  0
 18 20  1  0  0  0
 20 21  1  0  0  0
 20 62  1  0  0  0
 21 63  1  0  0  0
 21 64  1  0  0  0
 21 65  1  0  0  0
 22 23  1  0  0  0
 23 24  1  0  0  0
 23 26  1  0  0  0
 23 66  1  0  0  0
 24 25  1  0  0  0
 24 67  1  0  0  0
 24 68  1  0  0  0
 25 69  1  0  0  0
 25 70  1  0  0  0
 25 71  1  0  0  0
 26 27  1  0  0  0
 26 28  1  0  0  0
 26 29  1  0  0  0
 27 72  1  0  0  0
 28 73  1  0  0  0
 28 74  1  0  0  0
 28 75  1  0  0  0
 29 30  1  0  0  0
 29 33  1  0  0  0
 29 76  1  0  0  0
 30 77  1  0  0  0
 31 32  1  0  0  0
 31 78  1  0  0  0
 32 33  1  0  0  0
 32 35  1  0  0  0
 32 79  1  0  0  0
 33 34  1  0  0  0
 33 80  1  0  0  0
 34 81  1  0  0  0
 34 82  1  0  0  0
 34 83  1  0  0  0
 35 36  1  0  0  0
 35 37  1  0  0  0
 35 84  1  0  0  0
 36 85  1  0  0  0
 36 86  1  0  0  0
 36 87  1  0  0  0
 37 38  1  0  0  0
 37 88  1  0  0  0
 37 89  1  0  0  0
 38 39  1  0  0  0
 38 40  1  0  0  0
 39 90  1  0  0  0
 40 91  1  0  0  0
 40 92  1  0  0  0
 40 93  1  0  0  0
 41 42  1  0  0  0
 41 94  1  0  0  0
 42 95  1  0  0  0
 42 96  1  0  0  0
 42 97  1  0  0  0
 43 44  1  0  0  0
 44 45  1  0  0  0
 44 98  1  0  0  0
 44 99  1  0  0  0
 45 46  3  0  0  0
M  CHG  1  17   1
M  END
> <s_m_source_file>
../4z2l_ligand.sdf

> <i_m_source_file_index>
1

> <s_epik_input>
W0NIM11bTkhdQyg9TylbTkhdQyg9Ti9bSF0pXFtOSF1bQ0gyXVtDSDJdW0NIMl1bTkhdQyg9TylPW0NASF0oW0NAQEhdKFtDSDNdKUMoPU8pT1tDQEhdKFtDSDJdW0NIM10pW0NAXTEoW09IXSlbQ0gzXSlbQ0BIXShbQ0gzXSlbQ0BASF0oT1tDSDJdQyNbQ0hdKVtDQEBdKFtPSF0pKFtDSDNdKVtDSDJdW0NAQEhdKFtDSDNdKVtDQEhdKFtPSF0pW0NASF0oW0NIM10pW0NASF0xW09IXQ==

> <s_epik_cmdline>
J2VwaWtfYXBwJywgJy1pbWFlJywgJ2xpZ2FuZF9wcm8ubWFlJywgJy1vbWFlJywgJ2xpZ2FuZF9wcmVwLm1hZScsICctbXMnLCAnMScsICctcGgnLCAnNycsICctcGh0JywgJzAuNScsICctbnQn

> <r_epik_Ionization_Penalty>
  0.0005

> <r_epik_Ionization_Penalty_Charging>
  0.0000

> <r_epik_Ionization_Penalty_Neutral>
  0.0005

> <r_epik_State_Penalty>
  0.0387

> <r_epik_Charging_Adjusted_Penalty>
0.0387088403396631

> <i_epik_Tot_Q>
1

> <i_epik_Tot_abs_Q>
1

> <s_epik_Chemistry_Notes>
This compound has an ester and may undergo hydrolysis at high or low pH. This compound has an imine and may undergo hydrolysis.

$$$$
