4z2o_ligand
                    3D
 Schrodinger Suite 2020-3.
166165  0  0  1  0            999 V2000
    6.1700    9.9880   -9.1180 N   0  3  0  0  0  0
    6.2090    8.6300   -8.4800 C   0  0  2  0  0  0
    5.1710    8.4540   -7.3580 C   0  0  0  0  0  0
    5.4010    7.7070   -6.4020 O   0  0  0  0  0  0
    7.6200    8.2720   -7.9380 C   0  0  0  0  0  0
    8.6000    8.0420   -9.0840 C   0  0  0  0  0  0
    8.1220    9.3340   -6.9630 C   0  0  0  0  0  0
    4.0300    9.1320   -7.4740 N   0  0  0  0  0  0
    2.9090    8.8560   -6.5970 C   0  0  2  0  0  0
    2.3170    7.5040   -6.9890 C   0  0  0  0  0  0
    2.1930    7.1940   -8.1800 O   0  0  0  0  0  0
    1.8570    9.9510   -6.6970 C   0  0  0  0  0  0
    1.9670    6.7010   -5.9870 N   0  0  0  0  0  0
    1.2910    5.4180   -6.2080 C   0  0  2  0  0  0
   -0.1350    5.7070   -6.6990 C   0  0  0  0  0  0
   -0.8260    6.4900   -6.0910 O   0  0  0  0  0  0
    1.2260    4.6260   -4.8880 C   0  0  2  0  0  0
    2.5590    4.3700   -4.4190 O   0  0  0  0  0  0
    0.4960    3.2960   -5.0620 C   0  0  0  0  0  0
   -0.5730    5.0610   -7.7760 N   0  0  0  0  0  0
   -1.8920    5.3530   -8.3480 C   0  0  2  0  0  0
   -2.8590    4.2090   -8.0870 C   0  0  0  0  0  0
   -2.5640    3.0510   -8.3870 O   0  0  0  0  0  0
   -1.8180    5.5840   -9.8700 C   0  0  0  0  0  0
   -3.1800    5.9630  -10.4320 C   0  0  0  0  0  0
   -0.8220    6.6820  -10.1850 C   0  0  0  0  0  0
   -4.0110    4.5500   -7.5160 N   0  0  0  0  0  0
   -5.1060    3.6150   -7.3090 C   0  0  2  0  0  0
   -6.2770    4.0010   -8.1950 C   0  0  0  0  0  0
   -6.4830    5.1840   -8.4990 O   0  0  0  0  0  0
   -5.5570    3.6330   -5.8420 C   0  0  0  0  0  0
   -4.5360    3.2260   -4.9460 O   0  0  0  0  0  0
   -7.0840    3.0190   -8.5810 N   0  0  0  0  0  0
   -8.2190    3.2970   -9.4390 C   0  0  2  0  0  0
   -9.1680    4.3030   -8.7900 C   0  0  0  0  0  0
   -9.6960    5.2070   -9.4590 O   0  0  0  0  0  0
   -8.9690    2.0070   -9.7600 C   0  0  0  0  0  0
  -10.0930    2.2100  -10.7600 C   0  0  0  0  0  0
  -10.6830    0.8990  -11.2590 C   0  0  0  0  0  0
  -10.0350   -0.1680  -11.1360 O   0  0  0  0  0  0
  -11.7990    0.9360  -11.8010 O   0  0  0  0  0  0
   -9.3990    4.1310   -7.4940 N   0  0  0  0  0  0
  -10.2110    5.0580   -6.7220 C   0  0  2  0  0  0
   -9.8020    4.9330   -5.2640 C   0  0  0  0  0  0
   -8.9950    4.0830   -4.9080 O   0  0  0  0  0  0
  -11.6960    4.7500   -6.8850 C   0  0  0  0  0  0
  -12.0270    3.5650   -6.1920 O   0  0  0  0  0  0
  -10.3630    5.7690   -4.4050 N   0  0  0  0  0  0
  -10.0550    5.6810   -2.9840 C   0  0  2  0  0  0
  -10.3820    4.2900   -2.4200 C   0  0  0  0  0  0
   -9.6770    3.7800   -1.5630 O   0  0  0  0  0  0
  -10.8120    6.7740   -2.2300 C   0  0  0  0  0  0
  -10.4950    6.8640   -0.7430 C   0  0  0  0  0  0
   -9.0720    7.3420   -0.4970 C   0  0  0  0  0  0
  -11.5160    7.7730   -0.0880 C   0  0  0  0  0  0
  -11.4680    3.7000   -2.9050 N   0  0  0  0  0  0
  -11.9530    2.4410   -2.3740 C   0  0  2  0  0  0
  -11.3860    1.2120   -3.0610 C   0  0  0  0  0  0
  -11.5720    0.0940   -2.5750 O   0  0  0  0  0  0
  -13.4810    2.4130   -2.4300 C   0  0  0  0  0  0
  -14.1670    3.5720   -1.6790 C   0  0  0  0  0  0
  -15.6850    3.4250   -1.7010 C   0  0  0  0  0  0
  -13.6570    3.7180   -0.2490 C   0  0  0  0  0  0
  -10.7170    1.4040   -4.1910 N   0  0  0  0  0  0
  -10.0680    0.3200   -4.9030 C   0  0  2  0  0  0
   -8.5840    0.6540   -4.9880 C   0  0  0  0  0  0
   -8.1440    1.3470   -5.9120 O   0  0  0  0  0  0
  -10.6950    0.1590   -6.2870 C   0  0  2  0  0  0
  -12.0950   -0.1010   -6.1250 O   0  0  0  0  0  0
  -10.0400   -0.9820   -7.0530 C   0  0  0  0  0  0
   -7.8420    0.1560   -3.9950 N   0  0  0  0  0  0
   -6.3910    0.3410   -3.8630 C   0  0  2  0  0  0
   -5.6300    0.0590   -5.1580 C   0  0  0  0  0  0
   -4.5420    0.6060   -5.3770 O   0  0  0  0  0  0
   -5.8450   -0.5920   -2.7730 C   0  0  0  0  0  0
   -6.2100   -0.2080   -1.3500 C   0  0  0  0  0  0
   -5.9590   -1.3280   -0.3460 C   0  0  0  0  0  0
   -6.7130   -2.3290   -0.3570 O   0  0  0  0  0  0
   -5.0140   -1.2020    0.4650 O   0  0  0  0  0  0
   -6.0940   -0.7190   -6.0010 O   0  0  0  0  0  0
    5.1529   10.1922   -9.4838 H   0  0  0  0  0  0
    6.8757   10.0173   -9.9613 H   0  0  0  0  0  0
    6.4528   10.7497   -8.3765 H   0  0  0  0  0  0
    5.9384    7.9624   -9.3113 H   0  0  0  0  0  0
    7.5638    7.3296   -7.3734 H   0  0  0  0  0  0
    8.1997    7.2719   -9.7598 H   0  0  0  0  0  0
    9.5663    7.7076   -8.6785 H   0  0  0  0  0  0
    8.7407    8.9806   -9.6401 H   0  0  0  0  0  0
    7.3870    9.4672   -6.1555 H   0  0  0  0  0  0
    8.2576   10.2865   -7.4962 H   0  0  0  0  0  0
    9.0832    9.0135   -6.5347 H   0  0  0  0  0  0
    3.9448    9.9096   -8.2474 H   0  0  0  0  0  0
    3.3015    8.8417   -5.5695 H   0  0  0  0  0  0
    2.3029   10.9150   -6.4110 H   0  0  0  0  0  0
    1.0208    9.7189   -6.0211 H   0  0  0  0  0  0
    1.4869   10.0106   -7.7312 H   0  0  0  0  0  0
    2.2022    7.0297   -4.9639 H   0  0  0  0  0  0
    1.8727    4.8613   -6.9574 H   0  0  0  0  0  0
    0.7222    5.2248   -4.1150 H   0  0  0  0  0  0
    3.2466    5.2080   -4.2317 H   0  0  0  0  0  0
   -0.5267    3.4833   -5.4213 H   0  0  0  0  0  0
    0.4549    2.7712   -4.0961 H   0  0  0  0  0  0
    1.0339    2.6755   -5.7939 H   0  0  0  0  0  0
    0.0702    4.2978   -8.2383 H   0  0  0  0  0  0
   -2.2147    6.2659   -7.8260 H   0  0  0  0  0  0
   -1.4888    4.6519  -10.3525 H   0  0  0  0  0  0
   -3.9048    5.1674  -10.2046 H   0  0  0  0  0  0
   -3.1045    6.0896  -11.5221 H   0  0  0  0  0  0
   -3.5154    6.9060   -9.9757 H   0  0  0  0  0  0
    0.1638    6.4102   -9.7796 H   0  0  0  0  0  0
   -1.1589    7.6245   -9.7288 H   0  0  0  0  0  0
   -0.7480    6.8082  -11.2752 H   0  0  0  0  0  0
   -4.1134    5.5969   -7.1942 H   0  0  0  0  0  0
   -4.7161    2.6243   -7.5857 H   0  0  0  0  0  0
   -5.8597    4.6533   -5.5640 H   0  0  0  0  0  0
   -6.4090    2.9495   -5.7119 H   0  0  0  0  0  0
   -4.7335    3.1957   -3.8643 H   0  0  0  0  0  0
   -6.8869    1.9900   -8.2458 H   0  0  0  0  0  0
   -7.7847    3.7298  -10.3523 H   0  0  0  0  0  0
   -8.2697    1.2728  -10.1866 H   0  0  0  0  0  0
   -9.4103    1.6003   -8.8381 H   0  0  0  0  0  0
  -10.9036    2.7852  -10.2887 H   0  0  0  0  0  0
   -9.7123    2.7606  -11.6328 H   0  0  0  0  0  0
  -10.4618   -1.1154  -11.4968 H   0  0  0  0  0  0
   -8.9528    3.2522   -7.0055 H   0  0  0  0  0  0
  -10.0149    6.0683   -7.1105 H   0  0  0  0  0  0
  -12.2898    5.5823   -6.4792 H   0  0  0  0  0  0
  -11.9285    4.6199   -7.9522 H   0  0  0  0  0  0
  -13.0620    3.1925   -6.2025 H   0  0  0  0  0  0
  -11.0652    6.5333   -4.7693 H   0  0  0  0  0  0
   -8.9702    5.8447   -2.9037 H   0  0  0  0  0  0
  -10.5693    7.7548   -2.6649 H   0  0  0  0  0  0
  -11.8941    6.5941   -2.3122 H   0  0  0  0  0  0
  -10.5606    5.8633   -0.2909 H   0  0  0  0  0  0
   -8.3651    6.6568   -0.9876 H   0  0  0  0  0  0
   -8.8734    7.3610    0.5848 H   0  0  0  0  0  0
   -8.9485    8.3539   -0.9103 H   0  0  0  0  0  0
  -12.5283    7.3927   -0.2897 H   0  0  0  0  0  0
  -11.4178    8.7894   -0.4970 H   0  0  0  0  0  0
  -11.3427    7.7965    0.9980 H   0  0  0  0  0  0
  -12.0031    4.1911   -3.7311 H   0  0  0  0  0  0
  -11.5680    2.4394   -1.3436 H   0  0  0  0  0  0
  -13.8106    2.4700   -3.4779 H   0  0  0  0  0  0
  -13.8473    1.4781   -1.9808 H   0  0  0  0  0  0
  -13.9087    4.5024   -2.2060 H   0  0  0  0  0  0
  -16.0283    3.3215   -2.7409 H   0  0  0  0  0  0
  -16.1462    4.3158   -1.2496 H   0  0  0  0  0  0
  -15.9752    2.5317   -1.1284 H   0  0  0  0  0  0
  -12.5620    3.8223   -0.2591 H   0  0  0  0  0  0
  -13.9351    2.8265    0.3323 H   0  0  0  0  0  0
  -14.1061    4.6105    0.2111 H   0  0  0  0  0  0
  -10.6648    2.4297   -4.5849 H   0  0  0  0  0  0
  -10.2224   -0.6130   -4.3411 H   0  0  0  0  0  0
  -10.6067    1.0871   -6.8708 H   0  0  0  0  0  0
  -12.7305    0.6215   -5.5920 H   0  0  0  0  0  0
   -8.9664   -0.7745   -7.1728 H   0  0  0  0  0  0
  -10.5083   -1.0748   -8.0440 H   0  0  0  0  0  0
  -10.1720   -1.9211   -6.4957 H   0  0  0  0  0  0
   -8.3927   -0.4279   -3.2428 H   0  0  0  0  0  0
   -6.2815    1.4051   -3.6068 H   0  0  0  0  0  0
   -6.2337   -1.6087   -2.9321 H   0  0  0  0  0  0
   -4.7461   -0.6079   -2.8206 H   0  0  0  0  0  0
   -5.6095    0.6595   -1.0389 H   0  0  0  0  0  0
   -7.2784    0.0494   -1.3022 H   0  0  0  0  0  0
   -6.5498   -3.1484    0.3585 H   0  0  0  0  0  0
   -5.5402   -0.9168   -6.9306 H   0  0  0  0  0  0
  1  2  1  0  0  0
  1 81  1  0  0  0
  1 82  1  0  0  0
  1 83  1  0  0  0
  2  3  1  0  0  0
  2  5  1  0  0  0
  2 84  1  0  0  0
  3  4  2  0  0  0
  3  8  1  0  0  0
  5  6  1  0  0  0
  5  7  1  0  0  0
  5 85  1  0  0  0
  6 86  1  0  0  0
  6 87  1  0  0  0
  6 88  1  0  0  0
  7 89  1  0  0  0
  7 90  1  0  0  0
  7 91  1  0  0  0
  8  9  1  0  0  0
  8 92  1  0  0  0
  9 10  1  0  0  0
  9 12  1  0  0  0
  9 93  1  0  0  0
 10 11  2  0  0  0
 10 13  1  0  0  0
 12 94  1  0  0  0
 12 95  1  0  0  0
 12 96  1  0  0  0
 13 14  1  0  0  0
 13 97  1  0  0  0
 14 15  1  0  0  0
 14 17  1  0  0  0
 14 98  1  0  0  0
 15 16  2  0  0  0
 15 20  1  0  0  0
 17 18  1  0  0  0
 17 19  1  0  0  0
 17 99  1  0  0  0
 18100  1  0  0  0
 19101  1  0  0  0
 19102  1  0  0  0
 19103  1  0  0  0
 20 21  1  0  0  0
 20104  1  0  0  0
 21 22  1  0  0  0
 21 24  1  0  0  0
 21105  1  0  0  0
 22 23  2  0  0  0
 22 27  1  0  0  0
 24 25  1  0  0  0
 24 26  1  0  0  0
 24106  1  0  0  0
 25107  1  0  0  0
 25108  1  0  0  0
 25109  1  0  0  0
 26110  1  0  0  0
 26111  1  0  0  0
 26112  1  0  0  0
 27 28  1  0  0  0
 27113  1  0  0  0
 28 29  1  0  0  0
 28 31  1  0  0  0
 28114  1  0  0  0
 29 30  2  0  0  0
 29 33  1  0  0  0
 31 32  1  0  0  0
 31115  1  0  0  0
 31116  1  0  0  0
 32117  1  0  0  0
 33 34  1  0  0  0
 33118  1  0  0  0
 34 35  1  0  0  0
 34 37  1  0  0  0
 34119  1  0  0  0
 35 36  2  0  0  0
 35 42  1  0  0  0
 37 38  1  0  0  0
 37120  1  0  0  0
 37121  1  0  0  0
 38 39  1  0  0  0
 38122  1  0  0  0
 38123  1  0  0  0
 39 40  1  0  0  0
 39 41  2  0  0  0
 40124  1  0  0  0
 42 43  1  0  0  0
 42125  1  0  0  0
 43 44  1  0  0  0
 43 46  1  0  0  0
 43126  1  0  0  0
 44 45  2  0  0  0
 44 48  1  0  0  0
 46 47  1  0  0  0
 46127  1  0  0  0
 46128  1  0  0  0
 47129  1  0  0  0
 48 49  1  0  0  0
 48130  1  0  0  0
 49 50  1  0  0  0
 49 52  1  0  0  0
 49131  1  0  0  0
 50 51  2  0  0  0
 50 56  1  0  0  0
 52 53  1  0  0  0
 52132  1  0  0  0
 52133  1  0  0  0
 53 54  1  0  0  0
 53 55  1  0  0  0
 53134  1  0  0  0
 54135  1  0  0  0
 54136  1  0  0  0
 54137  1  0  0  0
 55138  1  0  0  0
 55139  1  0  0  0
 55140  1  0  0  0
 56 57  1  0  0  0
 56141  1  0  0  0
 57 58  1  0  0  0
 57 60  1  0  0  0
 57142  1  0  0  0
 58 59  2  0  0  0
 58 64  1  0  0  0
 60 61  1  0  0  0
 60143  1  0  0  0
 60144  1  0  0  0
 61 62  1  0  0  0
 61 63  1  0  0  0
 61145  1  0  0  0
 62146  1  0  0  0
 62147  1  0  0  0
 62148  1  0  0  0
 63149  1  0  0  0
 63150  1  0  0  0
 63151  1  0  0  0
 64 65  1  0  0  0
 64152  1  0  0  0
 65 66  1  0  0  0
 65 68  1  0  0  0
 65153  1  0  0  0
 66 67  2  0  0  0
 66 71  1  0  0  0
 68 69  1  0  0  0
 68 70  1  0  0  0
 68154  1  0  0  0
 69155  1  0  0  0
 70156  1  0  0  0
 70157  1  0  0  0
 70158  1  0  0  0
 71 72  1  0  0  0
 71159  1  0  0  0
 72 73  1  0  0  0
 72 75  1  0  0  0
 72160  1  0  0  0
 73 74  2  0  0  0
 73 80  1  0  0  0
 75 76  1  0  0  0
 75161  1  0  0  0
 75162  1  0  0  0
 76 77  1  0  0  0
 76163  1  0  0  0
 76164  1  0  0  0
 77 78  1  0  0  0
 77 79  2  0  0  0
 78165  1  0  0  0
 80166  1  0  0  0
M  CHG  1   1   1
M  END
> <s_m_source_file>
../4z2o_ligand.sdf

> <i_m_source_file_index>
1

> <s_epik_input>
W0NIM11bQ0hdKFtDSDNdKVtDQEhdKFtOSDMrXSlDKD1PKVtOSF1bQ0BASF0oW0NIM10pQyg9TylbTkhdW0NAQEhdKFtDQEhdKFtPSF0pW0NIM10pQyg9TylbTkhdW0NAQEhdKFtDSF0oW0NIM10pW0NIM10pQyg9TylbTkhdW0NAQEhdKFtDSDJdW09IXSlDKD1PKVtOSF1bQ0BASF0oW0NIMl1bQ0gyXUMoPU8pW09IXSlDKD1PKVtOSF1bQ0BASF0oW0NIMl1bT0hdKUMoPU8pW05IXVtDQEBIXShbQ0gyXVtDSF0oW0NIM10pW0NIM10pQyg9TylbTkhdW0NAQEhdKFtDSDJdW0NIXShbQ0gzXSlbQ0gzXSlDKD1PKVtOSF1bQ0BASF0oW0NASF0oW09IXSlbQ0gzXSlDKD1PKVtOSF1bQ0BIXShDKD1PKVtPSF0pW0NIMl1bQ0gyXUMoPU8pW09IXQ==

> <s_epik_cmdline>
J2VwaWtfYXBwJywgJy1pbWFlJywgJ2xpZ2FuZF9wcm8ubWFlJywgJy1vbWFlJywgJ2xpZ2FuZF9wcmVwLm1hZScsICctbXMnLCAnMScsICctcGgnLCAnNycsICctcGh0JywgJzAuNScsICctbnQn

> <s_epik_pKa_notes>
Molecule size exceeds maximum supported for generating protonation states

$$$$
