4z2p_ligand
                    3D
 Schrodinger Suite 2020-3.
167167  0  0  1  0            999 V2000
   10.8270   51.5120  -34.6300 N   0  3  0  0  0  0
   10.6530   50.7400  -33.3570 C   0  0  2  0  0  0
    9.2110   50.2350  -33.2520 C   0  0  0  0  0  0
    8.3110   50.7240  -33.9430 O   0  0  0  0  0  0
   11.0590   51.5390  -32.0750 C   0  0  0  0  0  0
   12.4240   52.2210  -32.2550 C   0  0  0  0  0  0
    9.9890   52.5520  -31.6560 C   0  0  0  0  0  0
    8.9930   49.2720  -32.3620 N   0  0  0  0  0  0
    7.6700   48.6280  -32.2360 C   0  0  2  0  0  0
    6.5560   49.6230  -31.9150 C   0  0  0  0  0  0
    6.7770   50.5880  -31.1580 O   0  0  0  0  0  0
    7.6940   47.5580  -31.1580 C   0  0  0  0  0  0
    5.3700   49.3720  -32.4850 N   0  0  0  0  0  0
    4.1480   50.1080  -32.1380 C   0  0  2  0  0  0
    3.6570   49.6690  -30.7770 C   0  0  0  0  0  0
    3.7610   48.4950  -30.4380 O   0  0  0  0  0  0
    2.9990   49.8400  -33.1190 C   0  0  2  0  0  0
    2.7350   48.4260  -33.1890 O   0  0  0  0  0  0
    3.3510   50.3850  -34.4880 C   0  0  0  0  0  0
    3.0780   50.6150  -30.0380 N   0  0  0  0  0  0
    2.6280   50.3740  -28.6720 C   0  0  2  0  0  0
    1.1110   50.4500  -28.6310 C   0  0  0  0  0  0
    0.5060   51.4130  -29.0980 O   0  0  0  0  0  0
    3.2460   51.3900  -27.6850 C   0  0  0  0  0  0
    2.8260   51.0630  -26.2480 C   0  0  0  0  0  0
    4.7580   51.3610  -27.8120 C   0  0  0  0  0  0
    0.5270   49.4120  -28.0410 N   0  0  0  0  0  0
   -0.9130   49.2660  -27.9100 C   0  0  2  0  0  0
   -1.1930   49.1490  -26.4310 C   0  0  0  0  0  0
   -0.4020   48.5600  -25.7000 O   0  0  0  0  0  0
   -1.4120   48.0160  -28.6480 C   0  0  0  0  0  0
   -1.3600   48.2390  -30.0560 O   0  0  0  0  0  0
   -2.3100   49.7330  -25.9970 N   0  0  0  0  0  0
   -2.7110   49.6450  -24.5880 C   0  0  2  0  0  0
   -2.7720   48.2100  -24.0880 C   0  0  0  0  0  0
   -2.4050   47.9270  -22.9320 O   0  0  0  0  0  0
   -4.0820   50.2870  -24.4090 C   0  0  0  0  0  0
   -4.5950   50.2950  -22.9730 C   0  0  0  0  0  0
   -6.0130   50.7940  -22.8990 C   0  0  0  0  0  0
   -6.5300   51.2850  -23.9210 O   0  0  0  0  0  0
   -6.6130   50.6990  -21.8200 O   0  0  0  0  0  0
   -3.2600   47.3070  -24.9450 N   0  0  0  0  0  0
   -3.3290   45.8730  -24.6000 C   0  0  2  0  0  0
   -3.4030   45.0170  -25.8680 C   0  0  0  0  0  0
   -3.5490   45.5170  -27.0070 O   0  0  0  0  0  0
   -4.5240   45.5900  -23.7000 C   0  0  0  0  0  0
   -5.7560   45.5340  -24.3930 O   0  0  0  0  0  0
   -3.3540   43.7150  -25.6400 N   0  0  0  0  0  0
   -3.5800   42.7290  -26.6750 C   0  0  2  0  0  0
   -5.0140   42.8250  -27.2310 C   0  0  0  0  0  0
   -5.2710   42.4100  -28.3540 O   0  0  0  0  0  0
   -3.3020   41.3530  -26.0530 C   0  0  0  0  0  0
   -3.3990   40.2100  -27.0190 C   0  0  0  0  0  0
   -2.3650   39.9510  -27.8870 C   0  0  0  0  0  0
   -4.5260   39.3620  -27.0400 C   0  0  0  0  0  0
   -2.4210   38.8690  -28.7390 C   0  0  0  0  0  0
   -4.5850   38.2790  -27.8980 C   0  0  0  0  0  0
   -3.5320   38.0300  -28.7540 C   0  0  0  0  0  0
   -5.9470   43.3720  -26.4470 N   0  0  0  0  0  0
   -7.3460   43.4950  -26.8880 C   0  0  2  0  0  0
   -7.7430   44.8570  -27.4540 C   0  0  0  0  0  0
   -8.7530   44.9430  -28.1390 O   0  0  0  0  0  0
   -8.2990   43.1580  -25.7290 C   0  0  0  0  0  0
   -8.1730   41.7690  -25.0870 C   0  0  0  0  0  0
   -9.2460   41.6710  -24.0110 C   0  0  0  0  0  0
   -8.3070   40.6330  -26.1260 C   0  0  0  0  0  0
   -6.9760   45.9010  -27.1450 N   0  0  0  0  0  0
   -7.3830   47.2850  -27.4210 C   0  0  2  0  0  0
   -6.1700   48.1170  -27.8240 C   0  0  0  0  0  0
   -5.1330   48.0930  -27.1430 O   0  0  0  0  0  0
   -8.0170   47.9380  -26.1730 C   0  0  2  0  0  0
   -9.1230   47.1420  -25.7240 O   0  0  0  0  0  0
   -8.4960   49.3870  -26.4690 C   0  0  0  0  0  0
   -6.3000   48.8600  -28.9180 N   0  0  0  0  0  0
   -5.2360   49.7610  -29.3390 C   0  0  2  0  0  0
   -5.1450   50.9600  -28.4050 C   0  0  0  0  0  0
   -4.0770   51.1860  -27.8440 O   0  0  0  0  0  0
   -5.4410   50.2200  -30.7700 C   0  0  0  0  0  0
   -4.2510   50.9800  -31.3230 C   0  0  0  0  0  0
   -4.3500   51.1800  -32.8200 C   0  0  0  0  0  0
   -4.5810   50.1820  -33.5380 O   0  0  0  0  0  0
   -4.1980   52.3340  -33.2720 O   0  0  0  0  0  0
   -6.1430   51.6570  -28.2470 O   0  0  0  0  0  0
   10.5225   50.8870  -35.4824 H   0  0  0  0  0  0
   11.8830   51.7981  -34.7439 H   0  0  0  0  0  0
   10.2032   52.4174  -34.5979 H   0  0  0  0  0  0
   11.3423   49.8876  -33.4482 H   0  0  0  0  0  0
   11.1475   50.8245  -31.2433 H   0  0  0  0  0  0
   13.1714   51.4718  -32.5551 H   0  0  0  0  0  0
   12.7303   52.6846  -31.3056 H   0  0  0  0  0  0
   12.3475   52.9948  -33.0331 H   0  0  0  0  0  0
    9.0244   52.0374  -31.5347 H   0  0  0  0  0  0
    9.8958   53.3281  -32.4299 H   0  0  0  0  0  0
   10.2785   53.0179  -30.7025 H   0  0  0  0  0  0
    9.8223   48.9568  -31.7117 H   0  0  0  0  0  0
    7.4887   48.1853  -33.2265 H   0  0  0  0  0  0
    8.4928   46.8343  -31.3775 H   0  0  0  0  0  0
    6.7246   47.0386  -31.1353 H   0  0  0  0  0  0
    7.8820   48.0264  -30.1806 H   0  0  0  0  0  0
    5.3358   48.5755  -33.2429 H   0  0  0  0  0  0
    4.4540   51.1643  -32.1622 H   0  0  0  0  0  0
    2.0603   50.2961  -32.7714 H   0  0  0  0  0  0
    2.4634   47.8715  -32.2787 H   0  0  0  0  0  0
    3.5487   51.4645  -34.4132 H   0  0  0  0  0  0
    2.5118   50.2129  -35.1780 H   0  0  0  0  0  0
    4.2481   49.8733  -34.8668 H   0  0  0  0  0  0
    2.9442   51.6069  -30.4942 H   0  0  0  0  0  0
    2.9694   49.3604  -28.4150 H   0  0  0  0  0  0
    2.8954   52.4049  -27.9239 H   0  0  0  0  0  0
    1.7289   51.0879  -26.1720 H   0  0  0  0  0  0
    3.2581   51.8061  -25.5616 H   0  0  0  0  0  0
    3.1895   50.0603  -25.9789 H   0  0  0  0  0  0
    5.0435   51.5973  -28.8477 H   0  0  0  0  0  0
    5.1289   50.3594  -27.5488 H   0  0  0  0  0  0
    5.1974   52.1052  -27.1315 H   0  0  0  0  0  0
    1.1971   48.6374  -27.6398 H   0  0  0  0  0  0
   -1.3924   50.1516  -28.3525 H   0  0  0  0  0  0
   -0.7733   47.1584  -28.3899 H   0  0  0  0  0  0
   -2.4492   47.8036  -28.3496 H   0  0  0  0  0  0
   -1.6810   47.4485  -30.7503 H   0  0  0  0  0  0
   -2.9346   50.2873  -26.7130 H   0  0  0  0  0  0
   -1.9271   50.1811  -24.0329 H   0  0  0  0  0  0
   -4.0419   51.3353  -24.7397 H   0  0  0  0  0  0
   -4.8239   49.7410  -25.0102 H   0  0  0  0  0  0
   -4.5629   49.2734  -22.5665 H   0  0  0  0  0  0
   -3.9610   50.9533  -22.3608 H   0  0  0  0  0  0
   -7.5651   51.6560  -23.8898 H   0  0  0  0  0  0
   -3.6149   47.6542  -25.9266 H   0  0  0  0  0  0
   -2.4038   45.6455  -24.0503 H   0  0  0  0  0  0
   -4.3848   44.6202  -23.1999 H   0  0  0  0  0  0
   -4.6093   46.3838  -22.9433 H   0  0  0  0  0  0
   -6.6878   45.3354  -23.8432 H   0  0  0  0  0  0
   -3.1303   43.3924  -24.6124 H   0  0  0  0  0  0
   -2.8845   42.9489  -27.4984 H   0  0  0  0  0  0
   -2.2839   41.3378  -25.6367 H   0  0  0  0  0  0
   -4.0292   41.1596  -25.2506 H   0  0  0  0  0  0
   -1.4941   40.6063  -27.9016 H   0  0  0  0  0  0
   -5.3623   39.5632  -26.3705 H   0  0  0  0  0  0
   -1.5853   38.6677  -29.4092 H   0  0  0  0  0  0
   -5.4579   37.6262  -27.8980 H   0  0  0  0  0  0
   -3.5696   37.1819  -29.4376 H   0  0  0  0  0  0
   -5.6501   43.7347  -25.4519 H   0  0  0  0  0  0
   -7.3853   42.7724  -27.7164 H   0  0  0  0  0  0
   -8.1440   43.8726  -24.9072 H   0  0  0  0  0  0
   -9.3397   43.2224  -26.0794 H   0  0  0  0  0  0
   -7.1769   41.6532  -24.6349 H   0  0  0  0  0  0
   -9.1197   42.4932  -23.2913 H   0  0  0  0  0  0
   -9.1534   40.7080  -23.4876 H   0  0  0  0  0  0
  -10.2400   41.7411  -24.4770 H   0  0  0  0  0  0
   -7.5178   40.7357  -26.8854 H   0  0  0  0  0  0
   -9.2925   40.6939  -26.6108 H   0  0  0  0  0  0
   -8.2060   39.6608  -25.6214 H   0  0  0  0  0  0
   -6.0066   45.6978  -26.6664 H   0  0  0  0  0  0
   -8.1078   47.2108  -28.2451 H   0  0  0  0  0  0
   -7.2957   47.9380  -25.3425 H   0  0  0  0  0  0
   -8.9702   46.0835  -25.4666 H   0  0  0  0  0  0
   -7.6439   49.9918  -26.8126 H   0  0  0  0  0  0
   -8.9139   49.8294  -25.5527 H   0  0  0  0  0  0
   -9.2692   49.3650  -27.2511 H   0  0  0  0  0  0
   -7.2256   48.7884  -29.5080 H   0  0  0  0  0  0
   -4.3120   49.1672  -29.2794 H   0  0  0  0  0  0
   -5.6085   49.3450  -31.4153 H   0  0  0  0  0  0
   -6.3156   50.8853  -30.8200 H   0  0  0  0  0  0
   -4.1955   51.9704  -30.8477 H   0  0  0  0  0  0
   -3.3281   50.4199  -31.1122 H   0  0  0  0  0  0
   -4.6586   50.2957  -34.6294 H   0  0  0  0  0  0
   -6.1044   52.5291  -27.5777 H   0  0  0  0  0  0
  1  2  1  0  0  0
  1 84  1  0  0  0
  1 85  1  0  0  0
  1 86  1  0  0  0
  2  3  1  0  0  0
  2  5  1  0  0  0
  2 87  1  0  0  0
  3  4  2  0  0  0
  3  8  1  0  0  0
  5  6  1  0  0  0
  5  7  1  0  0  0
  5 88  1  0  0  0
  6 89  1  0  0  0
  6 90  1  0  0  0
  6 91  1  0  0  0
  7 92  1  0  0  0
  7 93  1  0  0  0
  7 94  1  0  0  0
  8  9  1  0  0  0
  8 95  1  0  0  0
  9 10  1  0  0  0
  9 12  1  0  0  0
  9 96  1  0  0  0
 10 11  2  0  0  0
 10 13  1  0  0  0
 12 97  1  0  0  0
 12 98  1  0  0  0
 12 99  1  0  0  0
 13 14  1  0  0  0
 13100  1  0  0  0
 14 15  1  0  0  0
 14 17  1  0  0  0
 14101  1  0  0  0
 15 16  2  0  0  0
 15 20  1  0  0  0
 17 18  1  0  0  0
 17 19  1  0  0  0
 17102  1  0  0  0
 18103  1  0  0  0
 19104  1  0  0  0
 19105  1  0  0  0
 19106  1  0  0  0
 20 21  1  0  0  0
 20107  1  0  0  0
 21 22  1  0  0  0
 21 24  1  0  0  0
 21108  1  0  0  0
 22 23  2  0  0  0
 22 27  1  0  0  0
 24 25  1  0  0  0
 24 26  1  0  0  0
 24109  1  0  0  0
 25110  1  0  0  0
 25111  1  0  0  0
 25112  1  0  0  0
 26113  1  0  0  0
 26114  1  0  0  0
 26115  1  0  0  0
 27 28  1  0  0  0
 27116  1  0  0  0
 28 29  1  0  0  0
 28 31  1  0  0  0
 28117  1  0  0  0
 29 30  2  0  0  0
 29 33  1  0  0  0
 31 32  1  0  0  0
 31118  1  0  0  0
 31119  1  0  0  0
 32120  1  0  0  0
 33 34  1  0  0  0
 33121  1  0  0  0
 34 35  1  0  0  0
 34 37  1  0  0  0
 34122  1  0  0  0
 35 36  2  0  0  0
 35 42  1  0  0  0
 37 38  1  0  0  0
 37123  1  0  0  0
 37124  1  0  0  0
 38 39  1  0  0  0
 38125  1  0  0  0
 38126  1  0  0  0
 39 40  1  0  0  0
 39 41  2  0  0  0
 40127  1  0  0  0
 42 43  1  0  0  0
 42128  1  0  0  0
 43 44  1  0  0  0
 43 46  1  0  0  0
 43129  1  0  0  0
 44 45  2  0  0  0
 44 48  1  0  0  0
 46 47  1  0  0  0
 46130  1  0  0  0
 46131  1  0  0  0
 47132  1  0  0  0
 48 49  1  0  0  0
 48133  1  0  0  0
 49 50  1  0  0  0
 49 52  1  0  0  0
 49134  1  0  0  0
 50 51  2  0  0  0
 50 59  1  0  0  0
 52 53  1  0  0  0
 52135  1  0  0  0
 52136  1  0  0  0
 53 54  2  0  0  0
 53 55  1  0  0  0
 54 56  1  0  0  0
 54137  1  0  0  0
 55 57  2  0  0  0
 55138  1  0  0  0
 56 58  2  0  0  0
 56139  1  0  0  0
 57 58  1  0  0  0
 57140  1  0  0  0
 58141  1  0  0  0
 59 60  1  0  0  0
 59142  1  0  0  0
 60 61  1  0  0  0
 60 63  1  0  0  0
 60143  1  0  0  0
 61 62  2  0  0  0
 61 67  1  0  0  0
 63 64  1  0  0  0
 63144  1  0  0  0
 63145  1  0  0  0
 64 65  1  0  0  0
 64 66  1  0  0  0
 64146  1  0  0  0
 65147  1  0  0  0
 65148  1  0  0  0
 65149  1  0  0  0
 66150  1  0  0  0
 66151  1  0  0  0
 66152  1  0  0  0
 67 68  1  0  0  0
 67153  1  0  0  0
 68 69  1  0  0  0
 68 71  1  0  0  0
 68154  1  0  0  0
 69 70  2  0  0  0
 69 74  1  0  0  0
 71 72  1  0  0  0
 71 73  1  0  0  0
 71155  1  0  0  0
 72156  1  0  0  0
 73157  1  0  0  0
 73158  1  0  0  0
 73159  1  0  0  0
 74 75  1  0  0  0
 74160  1  0  0  0
 75 76  1  0  0  0
 75 78  1  0  0  0
 75161  1  0  0  0
 76 77  2  0  0  0
 76 83  1  0  0  0
 78 79  1  0  0  0
 78162  1  0  0  0
 78163  1  0  0  0
 79 80  1  0  0  0
 79164  1  0  0  0
 79165  1  0  0  0
 80 81  1  0  0  0
 80 82  2  0  0  0
 81166  1  0  0  0
 83167  1  0  0  0
M  CHG  1   1   1
M  END
> <s_m_source_file>
../4z2p_ligand.sdf

> <i_m_source_file_index>
1

> <s_epik_input>
W0NIM11bQ0hdKFtDSDNdKVtDQEhdKFtOSDMrXSlDKD1PKVtOSF1bQ0BASF0oW0NIM10pQyg9TylbTkhdW0NAQEhdKFtDQEhdKFtPSF0pW0NIM10pQyg9TylbTkhdW0NAQEhdKFtDSF0oW0NIM10pW0NIM10pQyg9TylbTkhdW0NAQEhdKFtDSDJdW09IXSlDKD1PKVtOSF1bQ0BASF0oW0NIMl1bQ0gyXUMoPU8pW09IXSlDKD1PKVtOSF1bQ0BASF0oW0NIMl1bT0hdKUMoPU8pW05IXVtDQEBIXShbQ0gyXWMxW2NIXVtjSF1bY0hdW2NIXVtjSF0xKUMoPU8pW05IXVtDQEBIXShbQ0gyXVtDSF0oW0NIM10pW0NIM10pQyg9TylbTkhdW0NAQEhdKFtDQEhdKFtPSF0pW0NIM10pQyg9TylbTkhdW0NASF0oQyg9TylbT0hdKVtDSDJdW0NIMl1DKD1PKVtPSF0=

> <s_epik_cmdline>
J2VwaWtfYXBwJywgJy1pbWFlJywgJ2xpZ2FuZF9wcm8ubWFlJywgJy1vbWFlJywgJ2xpZ2FuZF9wcmVwLm1hZScsICctbXMnLCAnMScsICctcGgnLCAnNycsICctcGh0JywgJzAuNScsICctbnQn

> <s_epik_pKa_notes>
Molecule size exceeds maximum supported for generating protonation states

$$$$
