4z3v_ligand
                    3D
 Schrodinger Suite 2020-3.
 38 41  0  0  1  0            999 V2000
  -20.6460   -9.9340    4.1900 C   0  0  0  0  0  0
  -21.7070   -9.1600    4.9520 C   0  0  0  0  0  0
  -21.8620   -9.4400    6.2850 C   0  0  0  0  0  0
  -22.8410   -8.7330    7.0180 C   0  0  0  0  0  0
  -23.2550   -8.7610    8.3790 C   0  0  0  0  0  0
  -24.2160   -7.8890    8.5370 N   0  3  0  0  0  0
  -24.4980   -7.2470    7.3310 N   0  0  0  0  0  0
  -23.6460   -7.7590    6.3750 C   0  0  0  0  0  0
  -23.4820   -7.4890    5.0200 C   0  0  0  0  0  0
  -22.5140   -8.1820    4.3060 C   0  0  0  0  0  0
  -22.3560   -7.8660    2.8570 C   0  0  0  0  0  0
  -23.2700   -8.3180    1.9080 C   0  0  0  0  0  0
  -23.1070   -8.0250    0.5590 C   0  0  0  0  0  0
  -22.0530   -7.2700    0.0980 C   0  0  0  0  0  0
  -21.1000   -6.8080    1.0270 C   0  0  0  0  0  0
  -19.9700   -6.0370    0.6060 C   0  0  0  0  0  0
  -19.7680   -5.7300   -0.7270 N   0  0  0  0  0  0
  -19.0790   -5.6450    1.6210 C   0  0  0  0  0  0
  -19.3080   -5.9820    2.9000 N   0  0  0  0  0  0
  -20.3360   -6.6590    3.2830 N   0  0  0  0  0  0
  -21.2470   -7.0990    2.4060 C   0  0  0  0  0  0
  -17.8430   -4.8890    1.3470 C   0  0  0  0  0  0
  -16.9070   -4.8410    2.3240 N   0  0  0  0  0  0
  -17.6450   -4.3560    0.2610 O   0  0  0  0  0  0
  -20.1416  -10.6338    4.8725 H   0  0  0  0  0  0
  -19.9084   -9.2322    3.7736 H   0  0  0  0  0  0
  -21.1194  -10.4967    3.3719 H   0  0  0  0  0  0
  -21.2304  -10.2027    6.7639 H   0  0  0  0  0  0
  -22.7692   -9.4479    9.0876 H   0  0  0  0  0  0
  -24.1066   -6.7383    4.5138 H   0  0  0  0  0  0
  -24.1267   -8.9109    2.2283 H   0  0  0  0  0  0
  -23.8368   -8.4051   -0.1559 H   0  0  0  0  0  0
  -21.9576   -7.0347   -0.9620 H   0  0  0  0  0  0
  -20.4951   -6.0599   -1.4837 H   0  0  0  0  0  0
  -18.8802   -5.1559   -1.0308 H   0  0  0  0  0  0
  -17.0987   -5.3239    3.2936 H   0  0  0  0  0  0
  -15.9548   -4.3191    2.1483 H   0  0  0  0  0  0
  -24.7805   -7.6278    9.4442 H   0  0  0  0  0  0
  1  2  1  0  0  0
  1 25  1  0  0  0
  1 26  1  0  0  0
  1 27  1  0  0  0
  2  3  2  0  0  0
  2 10  1  0  0  0
  3  4  1  0  0  0
  3 28  1  0  0  0
  4  5  2  0  0  0
  4  8  1  0  0  0
  5  6  1  0  0  0
  5 29  1  0  0  0
  6  7  1  0  0  0
  6 38  1  0  0  0
  7  8  2  0  0  0
  8  9  1  0  0  0
  9 10  2  0  0  0
  9 30  1  0  0  0
 10 11  1  0  0  0
 11 12  2  0  0  0
 11 21  1  0  0  0
 12 13  1  0  0  0
 12 31  1  0  0  0
 13 14  2  0  0  0
 13 32  1  0  0  0
 14 15  1  0  0  0
 14 33  1  0  0  0
 15 16  1  0  0  0
 15 21  2  0  0  0
 16 17  1  0  0  0
 16 18  2  0  0  0
 17 34  1  0  0  0
 17 35  1  0  0  0
 18 19  1  0  0  0
 18 22  1  0  0  0
 19 20  2  0  0  0
 20 21  1  0  0  0
 22 23  1  0  0  0
 22 24  2  0  0  0
 23 36  1  0  0  0
 23 37  1  0  0  0
M  CHG  1   6   1
M  END
> <s_m_source_file>
../4z3v_ligand.sdf

> <i_m_source_file_index>
1

> <s_epik_input>
W2NIXTFbbkhdbmMoYzEyKVtjSF1jKGMoW0NIM10pW2NIXTIpLWMoW2NIXVtjSF1bY0hdMyljKGMzNClubmMoYzRbTkgyXSlDKD1PKVtOSDJd

> <s_epik_cmdline>
J2VwaWtfYXBwJywgJy1pbWFlJywgJ2xpZ2FuZF9wcm8ubWFlJywgJy1vbWFlJywgJ2xpZ2FuZF9wcmVwLm1hZScsICctbXMnLCAnMScsICctcGgnLCAnNycsICctcGh0JywgJzAuNScsICctbnQn

> <r_epik_Ionization_Penalty>
  0.0003

> <r_epik_Ionization_Penalty_Charging>
  0.0000

> <r_epik_Ionization_Penalty_Neutral>
  0.0003

> <r_epik_State_Penalty>
  0.1833

> <r_epik_Charging_Adjusted_Penalty>
0.183310580072153

> <i_epik_Tot_Q>
1

> <i_epik_Tot_abs_Q>
1

> <s_epik_Chemistry_Notes>
This compound has an imine and may undergo hydrolysis.

$$$$
