4z46_ligand
                    3D
 Schrodinger Suite 2020-3.
 22 23  0  0  1  0            999 V2000
  -35.1270  -10.5990  -22.1620 Pt  0  0  0  0  0  0
  -35.0450  -12.3900  -23.1640 N   0  0  2  0  0  0
  -36.5690  -11.5110  -21.0520 N   0  3  0  0  0  0
  -35.8450  -13.3850  -22.4230 C   0  0  1  0  0  0
  -37.0440  -12.6990  -21.8040 C   0  0  1  0  0  0
  -37.7810  -13.7020  -20.9130 C   0  0  0  0  0  0
  -38.2040  -14.9550  -21.6790 C   0  0  0  0  0  0
  -37.0560  -15.5540  -22.4740 C   0  0  0  0  0  0
  -36.3350  -14.5080  -23.3170 C   0  0  0  0  0  0
  -34.0772  -12.7049  -23.2315 H   0  0  0  0  0  0
  -36.1469  -11.8182  -20.0837 H   0  0  0  0  0  0
  -37.4003  -10.8105  -20.8840 H   0  0  0  0  0  0
  -35.1756  -13.8052  -21.6579 H   0  0  0  0  0  0
  -37.7425  -12.3255  -22.5673 H   0  0  0  0  0  0
  -37.1228  -14.0125  -20.0882 H   0  0  0  0  0  0
  -38.6865  -13.2314  -20.5023 H   0  0  0  0  0  0
  -38.5623  -15.7151  -20.9692 H   0  0  0  0  0  0
  -39.0110  -14.7002  -22.3818 H   0  0  0  0  0  0
  -36.3254  -16.0004  -21.7834 H   0  0  0  0  0  0
  -37.4438  -16.3306  -23.1497 H   0  0  0  0  0  0
  -37.0284  -14.1024  -24.0685 H   0  0  0  0  0  0
  -35.4771  -14.9743  -23.8236 H   0  0  0  0  0  0
  1  3  1  0  0  0
  1  2  1  0  0  0
  2  4  1  0  0  0
  2 10  1  0  0  0
  3  5  1  0  0  0
  3 11  1  0  0  0
  3 12  1  0  0  0
  4  5  1  0  0  0
  4  9  1  0  0  0
  4 13  1  0  0  0
  5  6  1  0  0  0
  5 14  1  0  0  0
  6  7  1  0  0  0
  6 15  1  0  0  0
  6 16  1  0  0  0
  7  8  1  0  0  0
  7 17  1  0  0  0
  7 18  1  0  0  0
  8  9  1  0  0  0
  8 19  1  0  0  0
  8 20  1  0  0  0
  9 21  1  0  0  0
  9 22  1  0  0  0
M  CHG  1   3   1
M  END
> <s_m_source_file>
../4z46_ligand.sdf

> <i_m_source_file_index>
1

> <s_epik_input>
W05IMitdMVtQdF1bTkgyK11bQ0BASF0oW0NASF0xMilbQ0gyXVtDSDJdW0NIMl1bQ0gyXTI=

> <s_epik_cmdline>
J2VwaWtfYXBwJywgJy1pbWFlJywgJ2xpZ2FuZF9wcm8ubWFlJywgJy1vbWFlJywgJ2xpZ2FuZF9wcmVwLm1hZScsICctbXMnLCAnMScsICctcGgnLCAnNycsICctcGh0JywgJzAuNScsICctbnQn

> <r_lp_tautomer_probability>
1

> <r_epik_Ionization_Penalty>
  0.0000

> <r_epik_Ionization_Penalty_Charging>
  0.0000

> <r_epik_Ionization_Penalty_Neutral>
  0.0000

> <r_epik_State_Penalty>
 -0.0000

> <r_epik_Charging_Adjusted_Penalty>
1.90963525630796e-05

> <i_epik_Tot_Q>
1

> <i_epik_Tot_abs_Q>
1

$$$$
