4z68_ligand
                    3D
 Schrodinger Suite 2020-3.
177176  0  0  1  0            999 V2000
    8.6680   -9.4780   11.1370 N   0  3  0  0  0  0
    7.5310  -10.0390   11.8620 C   0  0  2  0  0  0
    6.2560   -9.9340   11.0250 C   0  0  0  0  0  0
    6.1280   -9.0310   10.2030 O   0  0  0  0  0  0
    7.3490   -9.3160   13.2040 C   0  0  0  0  0  0
    6.5120   -8.0400   13.1570 C   0  0  0  0  0  0
    7.2800   -6.8010   12.7060 C   0  0  0  0  0  0
    6.9460   -5.7000   13.2000 O   0  0  0  0  0  0
    8.1900   -6.9060   11.8550 O   0  0  0  0  0  0
    5.3080  -10.8460   11.2390 N   0  0  0  0  0  0
    4.0320  -10.7900   10.5270 C   0  0  2  0  0  0
    3.2070   -9.6140   11.0570 C   0  0  0  0  0  0
    3.2800   -9.2980   12.2410 O   0  0  0  0  0  0
    3.2440  -12.1140   10.7060 C   0  0  2  0  0  0
    1.9080  -12.0690    9.9570 C   0  0  0  0  0  0
    3.0160  -12.4120   12.1800 C   0  0  0  0  0  0
    1.0250  -13.2750   10.2250 C   0  0  0  0  0  0
    2.4400   -8.9420   10.1980 N   0  0  0  0  0  0
    1.5620   -7.8800   10.7030 C   0  0  2  0  0  0
    0.3520   -8.4810   11.4200 C   0  0  0  0  0  0
   -0.3500   -9.3180   10.8520 O   0  0  0  0  0  0
    1.0950   -6.9520    9.5770 C   0  0  0  0  0  0
    0.1010   -5.8880   10.0440 C   0  0  0  0  0  0
   -0.4600   -5.0520    8.8940 C   0  0  0  0  0  0
   -1.4230   -4.0900    9.4210 N   0  0  0  0  0  0
   -2.7350   -4.2990    9.4740 C   0  0  0  0  0  0
   -3.2500   -5.4250    9.0010 N   0  0  0  0  0  0
   -3.5320   -3.3790    9.9990 N   0  0  0  0  0  0
    0.1110   -8.0520   12.6620 N   0  0  0  0  0  0
   -1.0370   -8.5180   13.4560 C   0  0  2  0  0  0
   -2.2850   -7.6480   13.2650 C   0  0  0  0  0  0
   -2.1690   -6.4420   13.0270 O   0  0  0  0  0  0
   -0.6570   -8.5500   14.9340 C   0  0  0  0  0  0
    0.4360   -9.5480   15.2520 C   0  0  0  0  0  0
   -0.0490  -10.9770   15.1370 C   0  0  0  0  0  0
   -0.9210  -11.3730   15.9430 O   0  0  0  0  0  0
    0.4330  -11.7030   14.2400 O   0  0  0  0  0  0
   -3.4720   -8.2550   13.3940 N   0  0  0  0  0  0
   -4.7380   -7.5910   13.0580 C   0  0  2  0  0  0
   -5.3350   -6.8010   14.2120 C   0  0  0  0  0  0
   -6.2730   -6.0130   14.0270 O   0  0  0  0  0  0
   -5.7790   -8.6170   12.5950 C   0  0  0  0  0  0
   -5.2560   -9.6720   11.6260 C   0  0  0  0  0  0
   -5.0790   -9.1610   10.2040 C   0  0  0  0  0  0
   -5.0200   -7.9530    9.9580 O   0  0  0  0  0  0
   -4.9960  -10.0880    9.2550 N   0  0  0  0  0  0
   -4.8110   -7.0360   15.4050 N   0  0  0  0  0  0
   -5.3310   -6.3910   16.5950 C   0  0  0  0  0  0
   -6.1910   -7.3570   17.3800 C   0  0  0  0  0  0
   -6.4710   -8.4700   16.9150 O   0  0  0  0  0  0
   -6.6140   -6.9340   18.5670 N   0  0  0  0  0  0
   -7.4020   -7.7910   19.4390 C   0  0  2  0  0  0
   -8.8400   -7.8550   18.9720 C   0  0  0  0  0  0
   -9.4320   -6.8400   18.5980 O   0  0  0  0  0  0
   -7.3590   -7.2750   20.8710 C   0  0  0  0  0  0
   -6.0190   -7.5240   21.5350 C   0  0  0  0  0  0
   -5.5390   -8.6790   21.4960 O   0  0  0  0  0  0
   -5.4420   -6.5620   22.0860 O   0  0  0  0  0  0
   -9.4050   -9.0520   19.0030 N   0  0  0  0  0  0
  -10.7930   -9.2090   18.6170 C   0  0  0  0  0  0
  -11.0900  -10.6370   18.2360 C   0  0  0  0  0  0
  -10.2490  -11.5230   18.4190 O   0  0  0  0  0  0
  -12.2830  -10.8540   17.6930 N   0  0  0  0  0  0
  -12.7300  -12.1840   17.2940 C   0  0  2  0  0  0
  -13.6030  -12.0750   16.0580 C   0  0  0  0  0  0
  -14.2840  -11.0660   15.8610 O   0  0  0  0  0  0
  -13.5130  -12.8280   18.4210 C   0  0  0  0  0  0
  -13.6090  -13.1150   15.2320 N   0  0  0  0  0  0
  -14.5160  -13.1460   14.0840 C   0  0  2  0  0  0
  -15.9520  -13.3840   14.5240 C   0  0  0  0  0  0
  -16.1950  -14.0000   15.5630 O   0  0  0  0  0  0
  -14.1200  -14.2580   13.1080 C   0  0  0  0  0  0
  -12.7360  -14.1260   12.5350 C   0  0  0  0  0  0
  -12.6180  -12.9360   11.6150 C   0  0  0  0  0  0
  -13.6510  -12.5470   11.0290 O   0  0  0  0  0  0
  -11.4960  -12.3940   11.4730 O   0  0  0  0  0  0
  -16.9060  -12.8980   13.7300 N   0  0  0  0  0  0
  -18.2970  -13.2840   13.8980 C   0  0  2  0  0  0
  -18.4570  -14.6630   13.2770 C   0  0  0  0  0  0
  -17.6620  -15.0500   12.4180 O   0  0  0  0  0  0
  -19.2120  -12.3040   13.1780 C   0  0  0  0  0  0
  -19.2000  -10.9220   13.8020 C   0  0  0  0  0  0
  -19.4660  -10.8090   15.0200 O   0  0  0  0  0  0
  -18.9250   -9.9470   13.0650 O   0  0  0  0  0  0
  -19.4790  -15.3960   13.7020 N   0  0  0  0  0  0
  -19.7520  -16.7190   13.1430 C   0  0  2  0  0  0
  -20.2570  -16.6310   11.7040 C   0  0  0  0  0  0
  -21.1970  -15.8910   11.4080 O   0  0  0  0  0  0
  -20.7680  -17.4660   14.0100 C   0  0  0  0  0  0
  -22.0450  -16.6790   14.2930 C   0  0  0  0  0  0
  -23.1960  -17.5710   14.7130 C   0  0  0  0  0  0
  -23.0840  -18.2470   15.7580 O   0  0  0  0  0  0
  -24.2140  -17.6010   13.9900 O   0  0  0  0  0  0
  -19.7350  -17.2980   10.8090 O   0  0  0  0  0  0
    8.7874  -10.0042   10.1784 H   0  0  0  0  0  0
    9.5815   -9.5986   11.7377 H   0  0  0  0  0  0
    8.4914   -8.4087   10.9488 H   0  0  0  0  0  0
    7.7751  -11.0984   12.0298 H   0  0  0  0  0  0
    6.8494   -9.9877   13.9176 H   0  0  0  0  0  0
    8.3331   -9.0261   13.6008 H   0  0  0  0  0  0
    5.6773   -8.1748   12.4534 H   0  0  0  0  0  0
    6.1149   -7.8248   14.1600 H   0  0  0  0  0  0
    7.4731   -4.7813   12.9029 H   0  0  0  0  0  0
    5.4979  -11.6502   11.9651 H   0  0  0  0  0  0
    4.2834  -10.6378    9.4670 H   0  0  0  0  0  0
    3.8406  -12.9374   10.2863 H   0  0  0  0  0  0
    1.3462  -11.1740   10.2627 H   0  0  0  0  0  0
    2.0960  -12.0316    8.8738 H   0  0  0  0  0  0
    3.9837  -12.4407   12.7022 H   0  0  0  0  0  0
    2.5142  -13.3853   12.2839 H   0  0  0  0  0  0
    2.3852  -11.6254   12.6198 H   0  0  0  0  0  0
    0.0876  -13.1763    9.6580 H   0  0  0  0  0  0
    0.7990  -13.3323   11.3000 H   0  0  0  0  0  0
    1.5488  -14.1899    9.9111 H   0  0  0  0  0  0
    2.4595   -9.1748    9.1231 H   0  0  0  0  0  0
    2.1813   -7.3103   11.4114 H   0  0  0  0  0  0
    1.9631   -6.4294    9.1488 H   0  0  0  0  0  0
    0.6013   -7.5457    8.7935 H   0  0  0  0  0  0
   -0.7466   -6.3745   10.5489 H   0  0  0  0  0  0
    0.6002   -5.2020   10.7442 H   0  0  0  0  0  0
    0.3612   -4.5155    8.3961 H   0  0  0  0  0  0
   -0.9587   -5.7127    8.1696 H   0  0  0  0  0  0
   -1.0764   -3.1201    9.8073 H   0  0  0  0  0  0
   -2.5914   -6.1904    8.5647 H   0  0  0  0  0  0
   -3.1077   -2.4435   10.3924 H   0  0  0  0  0  0
   -4.6176   -3.5511   10.0412 H   0  0  0  0  0  0
    0.8134   -7.3203   13.0877 H   0  0  0  0  0  0
   -1.2536   -9.5268   13.0746 H   0  0  0  0  0  0
   -0.2975   -7.5570   15.2417 H   0  0  0  0  0  0
   -1.5381   -8.8228   15.5333 H   0  0  0  0  0  0
    1.2722   -9.4119   14.5504 H   0  0  0  0  0  0
    0.7908   -9.3878   16.2808 H   0  0  0  0  0  0
   -1.2943  -12.4061   15.8857 H   0  0  0  0  0  0
   -3.4758   -9.2897   13.7674 H   0  0  0  0  0  0
   -4.4489   -6.8915   12.2598 H   0  0  0  0  0  0
   -6.1737   -9.1582   13.4675 H   0  0  0  0  0  0
   -6.6023   -8.0982   12.0821 H   0  0  0  0  0  0
   -4.2748  -10.0312   11.9697 H   0  0  0  0  0  0
   -5.9616  -10.5150   11.5859 H   0  0  0  0  0  0
   -5.0535  -11.1539    9.5208 H   0  0  0  0  0  0
   -4.8698   -9.7893    8.2039 H   0  0  0  0  0  0
   -3.9656   -7.7354   15.4833 H   0  0  0  0  0  0
   -4.4944   -6.0585   17.2271 H   0  0  0  0  0  0
   -5.9393   -5.5217   16.3048 H   0  0  0  0  0  0
   -6.3566   -5.9131   18.8855 H   0  0  0  0  0  0
   -6.9402   -8.7869   19.3682 H   0  0  0  0  0  0
   -7.5441   -6.1907   20.8757 H   0  0  0  0  0  0
   -8.1326   -7.7816   21.4667 H   0  0  0  0  0  0
   -4.5683   -8.8875   21.9697 H   0  0  0  0  0  0
   -8.8204   -9.9275   19.3219 H   0  0  0  0  0  0
  -11.4419   -8.9265   19.4591 H   0  0  0  0  0  0
  -11.0092   -8.5617   17.7543 H   0  0  0  0  0  0
  -12.9423   -9.9856   17.5477 H   0  0  0  0  0  0
  -11.8288  -12.7766   17.0778 H   0  0  0  0  0  0
  -12.8750  -12.9042   19.3139 H   0  0  0  0  0  0
  -13.8366  -13.8337   18.1146 H   0  0  0  0  0  0
  -14.3955  -12.2134   18.6523 H   0  0  0  0  0  0
  -12.9256  -13.9571   15.4159 H   0  0  0  0  0  0
  -14.4158  -12.1523   13.6229 H   0  0  0  0  0  0
  -14.1601  -15.2292   13.6229 H   0  0  0  0  0  0
  -14.8174  -14.2649   12.2574 H   0  0  0  0  0  0
  -12.0109  -14.0019   13.3528 H   0  0  0  0  0  0
  -12.4892  -15.0309   11.9604 H   0  0  0  0  0  0
  -11.3852  -11.5251   10.8076 H   0  0  0  0  0  0
  -16.6233  -12.1917   12.9355 H   0  0  0  0  0  0
  -18.5225  -13.2747   14.9746 H   0  0  0  0  0  0
  -18.8897  -12.2028   12.1312 H   0  0  0  0  0  0
  -20.2462  -12.6776   13.2087 H   0  0  0  0  0  0
  -18.9068   -8.9296   13.4828 H   0  0  0  0  0  0
  -20.1269  -14.9883   14.4919 H   0  0  0  0  0  0
  -18.7809  -17.2357   13.1531 H   0  0  0  0  0  0
  -21.5491  -15.8387   10.3672 H   0  0  0  0  0  0
  -21.0668  -18.3966   13.5053 H   0  0  0  0  0  0
  -20.3138  -17.7060   14.9827 H   0  0  0  0  0  0
  -21.8603  -15.9601   15.1048 H   0  0  0  0  0  0
  -22.3504  -16.1371   13.3858 H   0  0  0  0  0  0
  -23.9075  -18.9009   16.0809 H   0  0  0  0  0  0
  1  2  1  0  0  0
  1 95  1  0  0  0
  1 96  1  0  0  0
  1 97  1  0  0  0
  2  3  1  0  0  0
  2  5  1  0  0  0
  2 98  1  0  0  0
  3  4  2  0  0  0
  3 10  1  0  0  0
  5  6  1  0  0  0
  5 99  1  0  0  0
  5100  1  0  0  0
  6  7  1  0  0  0
  6101  1  0  0  0
  6102  1  0  0  0
  7  8  1  0  0  0
  7  9  2  0  0  0
  8103  1  0  0  0
 10 11  1  0  0  0
 10104  1  0  0  0
 11 12  1  0  0  0
 11 14  1  0  0  0
 11105  1  0  0  0
 12 13  2  0  0  0
 12 18  1  0  0  0
 14 15  1  0  0  0
 14 16  1  0  0  0
 14106  1  0  0  0
 15 17  1  0  0  0
 15107  1  0  0  0
 15108  1  0  0  0
 16109  1  0  0  0
 16110  1  0  0  0
 16111  1  0  0  0
 17112  1  0  0  0
 17113  1  0  0  0
 17114  1  0  0  0
 18 19  1  0  0  0
 18115  1  0  0  0
 19 20  1  0  0  0
 19 22  1  0  0  0
 19116  1  0  0  0
 20 21  2  0  0  0
 20 29  1  0  0  0
 22 23  1  0  0  0
 22117  1  0  0  0
 22118  1  0  0  0
 23 24  1  0  0  0
 23119  1  0  0  0
 23120  1  0  0  0
 24 25  1  0  0  0
 24121  1  0  0  0
 24122  1  0  0  0
 25 26  1  0  0  0
 25123  1  0  0  0
 26 27  2  0  0  0
 26 28  1  0  0  0
 27124  1  0  0  0
 28125  1  0  0  0
 28126  1  0  0  0
 29 30  1  0  0  0
 29127  1  0  0  0
 30 31  1  0  0  0
 30 33  1  0  0  0
 30128  1  0  0  0
 31 32  2  0  0  0
 31 38  1  0  0  0
 33 34  1  0  0  0
 33129  1  0  0  0
 33130  1  0  0  0
 34 35  1  0  0  0
 34131  1  0  0  0
 34132  1  0  0  0
 35 36  1  0  0  0
 35 37  2  0  0  0
 36133  1  0  0  0
 38 39  1  0  0  0
 38134  1  0  0  0
 39 40  1  0  0  0
 39 42  1  0  0  0
 39135  1  0  0  0
 40 41  2  0  0  0
 40 47  1  0  0  0
 42 43  1  0  0  0
 42136  1  0  0  0
 42137  1  0  0  0
 43 44  1  0  0  0
 43138  1  0  0  0
 43139  1  0  0  0
 44 45  2  0  0  0
 44 46  1  0  0  0
 46140  1  0  0  0
 46141  1  0  0  0
 47 48  1  0  0  0
 47142  1  0  0  0
 48 49  1  0  0  0
 48143  1  0  0  0
 48144  1  0  0  0
 49 50  2  0  0  0
 49 51  1  0  0  0
 51 52  1  0  0  0
 51145  1  0  0  0
 52 53  1  0  0  0
 52 55  1  0  0  0
 52146  1  0  0  0
 53 54  2  0  0  0
 53 59  1  0  0  0
 55 56  1  0  0  0
 55147  1  0  0  0
 55148  1  0  0  0
 56 57  1  0  0  0
 56 58  2  0  0  0
 57149  1  0  0  0
 59 60  1  0  0  0
 59150  1  0  0  0
 60 61  1  0  0  0
 60151  1  0  0  0
 60152  1  0  0  0
 61 62  2  0  0  0
 61 63  1  0  0  0
 63 64  1  0  0  0
 63153  1  0  0  0
 64 65  1  0  0  0
 64 67  1  0  0  0
 64154  1  0  0  0
 65 66  2  0  0  0
 65 68  1  0  0  0
 67155  1  0  0  0
 67156  1  0  0  0
 67157  1  0  0  0
 68 69  1  0  0  0
 68158  1  0  0  0
 69 70  1  0  0  0
 69 72  1  0  0  0
 69159  1  0  0  0
 70 71  2  0  0  0
 70 77  1  0  0  0
 72 73  1  0  0  0
 72160  1  0  0  0
 72161  1  0  0  0
 73 74  1  0  0  0
 73162  1  0  0  0
 73163  1  0  0  0
 74 75  2  0  0  0
 74 76  1  0  0  0
 76164  1  0  0  0
 77 78  1  0  0  0
 77165  1  0  0  0
 78 79  1  0  0  0
 78 81  1  0  0  0
 78166  1  0  0  0
 79 80  2  0  0  0
 79 85  1  0  0  0
 81 82  1  0  0  0
 81167  1  0  0  0
 81168  1  0  0  0
 82 83  2  0  0  0
 82 84  1  0  0  0
 84169  1  0  0  0
 85 86  1  0  0  0
 85170  1  0  0  0
 86 87  1  0  0  0
 86 89  1  0  0  0
 86171  1  0  0  0
 87 88  1  0  0  0
 87 94  2  0  0  0
 88172  1  0  0  0
 89 90  1  0  0  0
 89173  1  0  0  0
 89174  1  0  0  0
 90 91  1  0  0  0
 90175  1  0  0  0
 90176  1  0  0  0
 91 92  1  0  0  0
 91 93  2  0  0  0
 92177  1  0  0  0
M  CHG  1   1   1
M  END
> <s_m_source_file>
../4z68_ligand.sdf

> <i_m_source_file_index>
1

> <s_epik_input>
W09IXUMoPU8pW0NIMl1bQ0gyXVtDQEhdKFtOSDMrXSlDKD1PKVtOSF1bQ0BASF0oW0NAQEhdKFtDSDNdKVtDSDJdW0NIM10pQyg9TylbTkhdW0NAQEhdKFtDSDJdW0NIMl1bQ0gyXVtOSF0vQyg9TlxbSF0pW05IMl0pQyg9TylbTkhdW0NAQEhdKFtDSDJdW0NIMl1DKD1PKVtPSF0pQyg9TylbTkhdW0NAQEhdKFtDSDJdW0NIMl1DKD1PKVtOSDJdKUMoPU8pW05IXVtDSDJdQyg9TylbTkhdW0NAQEhdKFtDSDJdQyg9TylbT0hdKUMoPU8pW05IXVtDSDJdQyg9TylbTkhdW0NAQEhdKFtDSDNdKUMoPU8pW05IXVtDQEBIXShbQ0gyXVtDSDJdQyg9TylbT0hdKUMoPU8pW05IXVtDQEBIXShbQ0gyXUMoPU8pW09IXSlDKD1PKVtOSF1bQ0BIXShDKD1PKVtPSF0pW0NIMl1bQ0gyXUMoPU8pW09IXQ==

> <s_epik_cmdline>
J2VwaWtfYXBwJywgJy1pbWFlJywgJ2xpZ2FuZF9wcm8ubWFlJywgJy1vbWFlJywgJ2xpZ2FuZF9wcmVwLm1hZScsICctbXMnLCAnMScsICctcGgnLCAnNycsICctcGh0JywgJzAuNScsICctbnQn

> <s_epik_pKa_notes>
Molecule size exceeds maximum supported for generating protonation states

> <s_epik_Chemistry_Notes>
This compound has an imine and may undergo hydrolysis.

$$$$
