4z6h_ligand
                    3D
 Schrodinger Suite 2020-3.
 38 40  0  0  1  0            999 V2000
  113.2390  141.0420    7.5730 O   0  0  0  0  0  0
  112.7460  141.2860    6.4690 C   0  0  0  0  0  0
  112.8850  142.6130    5.9360 C   0  0  0  0  0  0
  111.6860  142.9900    5.0120 C   0  0  0  0  0  0
  111.8060  141.9480    3.8550 C   0  0  0  0  0  0
  111.4730  140.5610    4.4200 C   0  0  0  0  0  0
  112.0950  140.2970    5.7710 N   0  0  0  0  0  0
  111.8400  139.0140    6.2160 C   0  0  0  0  0  0
  110.5360  138.7420    6.6600 C   0  0  0  0  0  0
  110.1020  137.4860    7.1080 C   0  0  0  0  0  0
  108.8160  137.3060    7.5290 N   0  0  0  0  0  0
  107.7710  138.3970    7.5980 C   0  0  0  0  0  0
  108.4360  136.0770    7.9300 C   0  0  0  0  0  0
  107.2910  135.9170    8.2790 O   0  0  0  0  0  0
  109.3420  134.9930    7.9210 C   0  0  0  0  0  0
  110.6550  135.1430    7.5160 C   0  0  0  0  0  0
  111.5760  134.0410    7.5410 C   0  0  0  0  0  0
  111.0550  136.4310    7.1050 C   0  0  0  0  0  0
  112.3740  136.6820    6.6480 C   0  0  0  0  0  0
  112.7670  137.9590    6.1950 C   0  0  0  0  0  0
  112.9272  143.3376    6.7626 H   0  0  0  0  0  0
  113.8110  142.6759    5.3457 H   0  0  0  0  0  0
  110.7456  142.8952    5.5747 H   0  0  0  0  0  0
  111.8026  144.0272    4.6648 H   0  0  0  0  0  0
  111.0999  142.2081    3.0526 H   0  0  0  0  0  0
  112.8318  141.9574    3.4580 H   0  0  0  0  0  0
  110.3833  140.4635    4.5339 H   0  0  0  0  0  0
  111.8404  139.7864    3.7308 H   0  0  0  0  0  0
  109.8149  139.5594    6.6562 H   0  0  0  0  0  0
  108.2057  139.3439    7.2454 H   0  0  0  0  0  0
  107.4313  138.5141    8.6377 H   0  0  0  0  0  0
  106.9159  138.1265    6.9611 H   0  0  0  0  0  0
  108.9958  134.0107    8.2425 H   0  0  0  0  0  0
  111.0565  133.1369    7.8912 H   0  0  0  0  0  0
  112.4074  134.2734    8.2227 H   0  0  0  0  0  0
  111.9693  133.8688    6.5282 H   0  0  0  0  0  0
  113.1007  135.8696    6.6467 H   0  0  0  0  0  0
  113.7812  138.1254    5.8319 H   0  0  0  0  0  0
  1  2  2  0  0  0
  2  3  1  0  0  0
  2  7  1  0  0  0
  3  4  1  0  0  0
  3 21  1  0  0  0
  3 22  1  0  0  0
  4  5  1  0  0  0
  4 23  1  0  0  0
  4 24  1  0  0  0
  5  6  1  0  0  0
  5 25  1  0  0  0
  5 26  1  0  0  0
  6  7  1  0  0  0
  6 27  1  0  0  0
  6 28  1  0  0  0
  7  8  1  0  0  0
  8  9  2  0  0  0
  8 20  1  0  0  0
  9 10  1  0  0  0
  9 29  1  0  0  0
 10 11  1  0  0  0
 10 18  2  0  0  0
 11 12  1  0  0  0
 11 13  1  0  0  0
 12 30  1  0  0  0
 12 31  1  0  0  0
 12 32  1  0  0  0
 13 14  2  0  0  0
 13 15  1  0  0  0
 15 16  2  0  0  0
 15 33  1  0  0  0
 16 17  1  0  0  0
 16 18  1  0  0  0
 17 34  1  0  0  0
 17 35  1  0  0  0
 17 36  1  0  0  0
 18 19  1  0  0  0
 19 20  2  0  0  0
 19 37  1  0  0  0
 20 38  1  0  0  0
M  END
> <s_m_source_file>
../4z6h_ligand.sdf

> <i_m_source_file_index>
1

> <s_epik_input>
Tz1DMVtDSDJdW0NIMl1bQ0gyXVtDSDJdTjFjKFtjSF0yKVtjSF1bY0hdYyhjMjMpYyhbQ0gzXSlbY0hdYyg9TyluM1tDSDNd

> <s_epik_cmdline>
J2VwaWtfYXBwJywgJy1pbWFlJywgJ2xpZ2FuZF9wcm8ubWFlJywgJy1vbWFlJywgJ2xpZ2FuZF9wcmVwLm1hZScsICctbXMnLCAnMScsICctcGgnLCAnNycsICctcGh0JywgJzAuNScsICctbnQn

> <r_lp_tautomer_probability>
1

> <r_epik_Ionization_Penalty>
  0.0000

> <r_epik_Ionization_Penalty_Charging>
  0.0000

> <r_epik_Ionization_Penalty_Neutral>
  0.0000

> <r_epik_State_Penalty>
 -0.0000

> <r_epik_Charging_Adjusted_Penalty>
7.45966650881241e-07

> <i_epik_Tot_Q>
0

> <i_epik_Tot_abs_Q>
0

$$$$
