4z7f_ligand
                    3D
 Schrodinger Suite 2020-3.
 49 51  0  0  1  0            999 V2000
  -12.1800    1.8810   59.7270 N   0  0  0  0  0  0
  -11.7260    2.8370   60.5720 C   0  0  0  0  0  0
  -11.0290    2.4900   61.6700 N   0  0  0  0  0  0
  -11.9100    4.1650   60.3900 N   0  3  0  0  0  0
  -12.5730    4.6270   59.3140 C   0  0  0  0  0  0
  -12.7590    5.8470   59.1370 O   0  0  0  0  0  0
  -13.1010    3.6480   58.3430 C   0  0  0  0  0  0
  -13.7880    4.0320   57.2470 N   0  0  0  0  0  0
  -14.2560    3.0940   56.3830 C   0  0  0  0  0  0
  -14.0270    1.7350   56.6250 C   0  0  0  0  0  0
  -13.3470    1.3180   57.7170 N   0  0  0  0  0  0
  -12.8600    2.2150   58.6130 C   0  0  0  0  0  0
  -15.0010    3.5360   55.1400 C   0  0  0  0  0  0
  -14.3380    3.0650   53.9260 N   0  0  0  0  0  0
  -10.8650    4.4650   52.0310 C   0  0  0  0  0  0
  -12.1500    4.7570   51.5560 C   0  0  0  0  0  0
  -13.3050    4.2970   52.1910 C   0  0  0  0  0  0
  -13.1940    3.5230   53.3450 C   0  0  0  0  0  0
  -11.9230    3.2170   53.8370 C   0  0  0  0  0  0
  -10.7840    3.6960   53.1840 C   0  0  0  0  0  0
   -9.6310    5.0100   51.3080 C   0  0  0  0  0  0
   -9.5690    4.8580   50.0950 O   0  0  0  0  0  0
   -8.6750    5.6860   51.9750 N   0  0  0  0  0  0
   -7.5540    6.4100   51.3990 C   0  0  1  0  0  0
   -7.4700    7.8800   51.8340 C   0  0  0  0  0  0
   -7.4100    8.9240   50.7060 C   0  0  0  0  0  0
   -7.4820   10.3770   51.1910 C   0  0  0  0  0  0
   -7.2820   11.2930   50.3620 O   0  0  0  0  0  0
   -7.7380   10.6190   52.3960 O   0  5  0  0  0  0
   -6.3640    5.7690   52.0200 C   0  0  0  0  0  0
   -5.3090    5.6160   51.3650 O   0  5  0  0  0  0
   -6.5010    5.3860   53.2030 O   0  0  0  0  0  0
  -10.8375    1.4288   61.8873 H   0  0  0  0  0  0
  -14.4049    0.9965   55.9180 H   0  0  0  0  0  0
  -16.0226    3.1286   55.1605 H   0  0  0  0  0  0
  -15.0450    4.6347   55.1101 H   0  0  0  0  0  0
  -14.7674    2.2295   53.3536 H   0  0  0  0  0  0
  -12.2518    5.3657   50.6576 H   0  0  0  0  0  0
  -14.2874    4.5415   51.7870 H   0  0  0  0  0  0
  -11.8193    2.6035   54.7319 H   0  0  0  0  0  0
   -9.8018    3.4585   53.5926 H   0  0  0  0  0  0
   -8.8060    5.6532   53.0667 H   0  0  0  0  0  0
   -7.6565    6.3397   50.3060 H   0  0  0  0  0  0
   -8.3551    8.1357   52.4350 H   0  0  0  0  0  0
   -6.5618    8.0331   52.4354 H   0  0  0  0  0  0
   -6.4646    8.8140   50.1545 H   0  0  0  0  0  0
   -8.2552    8.7705   50.0190 H   0  0  0  0  0  0
  -10.6509    3.2676   62.3500 H   0  0  0  0  0  0
  -11.5157    4.8809   61.1262 H   0  0  0  0  0  0
  1  2  2  0  0  0
  1 12  1  0  0  0
  2  3  1  0  0  0
  2  4  1  0  0  0
  3 33  1  0  0  0
  3 48  1  0  0  0
  4  5  1  0  0  0
  4 49  1  0  0  0
  5  6  2  0  0  0
  5  7  1  0  0  0
  7  8  1  0  0  0
  7 12  2  0  0  0
  8  9  2  0  0  0
  9 10  1  0  0  0
  9 13  1  0  0  0
 10 11  2  0  0  0
 10 34  1  0  0  0
 11 12  1  0  0  0
 13 14  1  0  0  0
 13 35  1  0  0  0
 13 36  1  0  0  0
 14 18  1  0  0  0
 14 37  1  0  0  0
 15 16  2  0  0  0
 15 20  1  0  0  0
 15 21  1  0  0  0
 16 17  1  0  0  0
 16 38  1  0  0  0
 17 18  2  0  0  0
 17 39  1  0  0  0
 18 19  1  0  0  0
 19 20  2  0  0  0
 19 40  1  0  0  0
 20 41  1  0  0  0
 21 22  2  0  0  0
 21 23  1  0  0  0
 23 24  1  0  0  0
 23 42  1  0  0  0
 24 25  1  0  0  0
 24 30  1  0  0  0
 24 43  1  0  0  0
 25 26  1  0  0  0
 25 44  1  0  0  0
 25 45  1  0  0  0
 26 27  1  0  0  0
 26 46  1  0  0  0
 26 47  1  0  0  0
 27 28  2  0  0  0
 27 29  1  0  0  0
 30 31  1  0  0  0
 30 32  2  0  0  0
M  CHG  3   4   1  29  -1  31  -1
M  END
> <s_m_source_file>
../4z7f_ligand.sdf

> <i_m_source_file_index>
1

> <s_epik_input>
Tz1jMVtuSF1jKD1OL1tIXSlcW25IXWMoYzEyKW5bY0hdYyhuMilbQ0gyXVtOSF1jKFtjSF1bY0hdMylbY0hdW2NIXWMzQyg9TylbTkhdW0NASF0oQyg9TylbT0hdKVtDSDJdW0NIMl1DKD1PKVtPSF0=

> <s_epik_cmdline>
J2VwaWtfYXBwJywgJy1pbWFlJywgJ2xpZ2FuZF9wcm8ubWFlJywgJy1vbWFlJywgJ2xpZ2FuZF9wcmVwLm1hZScsICctbXMnLCAnMScsICctcGgnLCAnNycsICctcGh0JywgJzAuNScsICctbnQn

> <r_epik_Ionization_Penalty>
  0.2829

> <r_epik_Ionization_Penalty_Charging>
  0.2828

> <r_epik_Ionization_Penalty_Neutral>
  0.0000

> <r_epik_State_Penalty>
  0.0466

> <r_epik_Charging_Adjusted_Penalty>
0.329477824974968

> <i_epik_Tot_Q>
-1

> <i_epik_Tot_abs_Q>
3

> <s_epik_Chemistry_Notes>
This compound has an imine and may undergo hydrolysis.

$$$$
