4z7h_ligand
                    3D
 Schrodinger Suite 2020-3.
 43 45  0  0  1  0            999 V2000
   34.1820  -13.2100   10.5540 C   0  0  0  0  0  0
   36.1070  -17.4340   10.6420 C   0  0  0  0  0  0
   35.4030  -13.8670   10.4820 C   0  0  0  0  0  0
   36.6070  -11.8380   11.0360 C   0  0  0  0  0  0
   37.8880  -11.0980   11.4070 C   0  0  0  0  0  0
   38.1710  -14.6080    9.4980 C   0  0  0  0  0  0
   33.1380  -17.5890    9.8710 C   0  0  0  0  0  0
   31.8010  -17.8930    9.5140 C   0  0  0  0  0  0
   30.8870  -16.7880    9.4550 C   0  0  0  0  0  0
   31.3830  -15.4560    9.7340 C   0  0  0  0  0  0
   32.6440  -15.2820   10.0120 N   0  0  0  0  0  0
   33.5020  -16.3240   10.0690 N   0  0  0  0  0  0
   30.7280  -14.2540    9.8040 N   0  0  0  0  0  0
   31.6250  -13.3000   10.0960 C   0  0  0  0  0  0
   32.8770  -13.9170   10.2290 C   0  0  0  0  0  0
   34.0920  -18.6510    9.8350 N   0  0  0  0  0  0
   35.3020  -18.7080   10.6100 C   0  0  0  0  0  0
   36.1940  -19.8010   10.0480 C   0  0  0  0  0  0
   36.6090  -13.1980   10.7120 C   0  0  0  0  0  0
   35.3840  -11.1680   11.0950 C   0  0  0  0  0  0
   34.1890  -11.8460   10.8370 C   0  0  0  0  0  0
   37.8440   -9.9270   11.7360 O   0  0  0  0  0  0
   39.1540  -11.7460   11.4430 N   0  0  0  0  0  0
   37.8210  -13.9270   10.6890 O   0  0  0  0  0  0
   35.4879  -16.6192   11.0455 H   0  0  0  0  0  0
   36.4299  -17.1786    9.6219 H   0  0  0  0  0  0
   36.9906  -17.5746   11.2819 H   0  0  0  0  0  0
   35.4218  -14.9297   10.2404 H   0  0  0  0  0  0
   39.1326  -15.1231    9.6392 H   0  0  0  0  0  0
   38.2602  -13.8842    8.6745 H   0  0  0  0  0  0
   37.3921  -15.3458    9.2551 H   0  0  0  0  0  0
   31.4833  -18.9125    9.2956 H   0  0  0  0  0  0
   29.8383  -16.9483    9.2047 H   0  0  0  0  0  0
   31.4176  -12.2359   10.2095 H   0  0  0  0  0  0
   33.8413  -19.4706    9.1455 H   0  0  0  0  0  0
   34.9229  -18.8933   11.6259 H   0  0  0  0  0  0
   37.1234  -19.8533   10.6341 H   0  0  0  0  0  0
   36.4344  -19.5747    8.9987 H   0  0  0  0  0  0
   35.6703  -20.7667   10.1041 H   0  0  0  0  0  0
   35.3605  -10.1072   11.3443 H   0  0  0  0  0  0
   33.2469  -11.2982   10.8576 H   0  0  0  0  0  0
   39.2388  -12.8039   11.1537 H   0  0  0  0  0  0
   40.0481  -11.1892   11.7601 H   0  0  0  0  0  0
  1  3  2  0  0  0
  1 15  1  0  0  0
  1 21  1  0  0  0
  2 17  1  0  0  0
  2 25  1  0  0  0
  2 26  1  0  0  0
  2 27  1  0  0  0
  3 19  1  0  0  0
  3 28  1  0  0  0
  4  5  1  0  0  0
  4 19  2  0  0  0
  4 20  1  0  0  0
  5 22  2  0  0  0
  5 23  1  0  0  0
  6 24  1  0  0  0
  6 29  1  0  0  0
  6 30  1  0  0  0
  6 31  1  0  0  0
  7  8  1  0  0  0
  7 12  2  0  0  0
  7 16  1  0  0  0
  8  9  2  0  0  0
  8 32  1  0  0  0
  9 10  1  0  0  0
  9 33  1  0  0  0
 10 11  1  0  0  0
 10 13  2  0  0  0
 11 12  1  0  0  0
 11 15  1  0  0  0
 13 14  1  0  0  0
 14 15  2  0  0  0
 14 34  1  0  0  0
 16 17  1  0  0  0
 16 35  1  0  0  0
 17 18  1  0  0  0
 17 36  1  0  0  0
 18 37  1  0  0  0
 18 38  1  0  0  0
 18 39  1  0  0  0
 19 24  1  0  0  0
 20 21  2  0  0  0
 20 40  1  0  0  0
 21 41  1  0  0  0
 23 42  1  0  0  0
 23 43  1  0  0  0
M  END
> <s_m_source_file>
../4z7h_ligand.sdf

> <i_m_source_file_index>
1

> <s_epik_input>
W2NIXTFbY0hdYyhDKD1PKVtOSDJdKWMoT1tDSDNdKVtjSF1jMS1jKFtjSF1uMiluKGMyMyluYyhbY0hdW2NIXTMpW05IXVtDSF0oW0NIM10pW0NIM10=

> <s_epik_cmdline>
J2VwaWtfYXBwJywgJy1pbWFlJywgJ2xpZ2FuZF9wcm8ubWFlJywgJy1vbWFlJywgJ2xpZ2FuZF9wcmVwLm1hZScsICctbXMnLCAnMScsICctcGgnLCAnNycsICctcGh0JywgJzAuNScsICctbnQn

> <r_lp_tautomer_probability>
0.99999999999948

> <r_epik_Ionization_Penalty>
  0.0109

> <r_epik_Ionization_Penalty_Charging>
  0.0000

> <r_epik_Ionization_Penalty_Neutral>
  0.0109

> <r_epik_State_Penalty>
  0.0083

> <r_epik_Charging_Adjusted_Penalty>
0.00834090282736145

> <i_epik_Tot_Q>
0

> <i_epik_Tot_abs_Q>
0

$$$$
