4z7i_ligand
                    3D
 Schrodinger Suite 2020-3.
176179  0  0  1  0            999 V2000
   -8.6490   35.7050   10.7360 C   0  0  0  0  0  0
   -8.3040   34.6400   11.7830 C   0  0  0  0  0  0
   -8.8810   35.8970    8.3860 C   0  0  1  0  0  0
   -8.1490   35.6080    6.7950 P   0  0  2  0  0  0
   -7.9640   36.8800    6.1010 O   0  0  0  0  0  0
   -9.0050   34.7400    5.9960 O   0  0  0  0  0  0
  -10.1340   35.6160    8.3970 N   0  3  0  0  0  0
   -8.2230   35.2050    9.3510 C   0  0  0  0  0  0
   -7.0190   34.3040   12.1910 C   0  0  0  0  0  0
   -6.8720   33.2990   13.1590 C   0  0  0  0  0  0
   -7.9160   32.6300   13.7240 C   0  0  0  0  0  0
   -9.2120   32.9610   13.3180 C   0  0  0  0  0  0
   -9.3750   33.9610   12.3520 C   0  0  0  0  0  0
   -4.7880   34.3150    5.4640 C   0  0  0  0  0  0
   -6.7200   34.9120    7.0030 C   0  0  0  0  0  0
   -6.6300   32.6430    5.7820 C   0  0  0  0  0  0
   -7.4640   32.1460    5.0540 O   0  0  0  0  0  0
   -6.3200   34.1310    5.7140 C   0  0  2  0  0  0
   -4.4020   34.8090    4.0540 C   0  0  0  0  0  0
   -4.8770   36.2380    3.8030 C   0  0  0  0  0  0
   -4.9610   33.8830    2.9680 C   0  0  0  0  0  0
   -5.9230   31.8790    6.7140 N   0  0  0  0  0  0
   -6.0920   30.4360    6.8320 C   0  0  2  0  0  0
   -5.2840   29.7120    5.7620 C   0  0  0  0  0  0
   -5.8260   28.9540    4.9560 O   0  0  0  0  0  0
   -7.5710   30.0500    6.7480 C   0  0  0  0  0  0
   -8.4010   30.5640    7.9190 C   0  0  0  0  0  0
   -7.6310   30.4270    9.2250 C   0  0  0  0  0  0
   -8.0760   31.4600   10.2450 C   0  0  0  0  0  0
   -9.4880   31.2650   10.6550 N   0  3  0  0  0  0
   -3.9800   29.9640    5.7650 N   0  0  0  0  0  0
   -3.0520   29.2790    4.8770 C   0  0  2  0  0  0
   -2.0210   28.4940    5.6810 C   0  0  0  0  0  0
   -1.6120   28.9060    6.7660 O   0  0  0  0  0  0
   -2.3470   30.2740    3.9500 C   0  0  0  0  0  0
   -3.0400   30.4780    2.6380 C   0  0  0  0  0  0
   -2.5720   31.3490    1.6780 N   0  0  0  0  0  0
   -4.1610   29.9180    2.1230 C   0  0  0  0  0  0
   -3.3770   31.3210    0.6300 C   0  0  0  0  0  0
   -4.3480   30.4610    0.8750 N   0  0  0  0  0  0
   -1.6200   27.3530    5.1340 N   0  0  0  0  0  0
   -0.5790   26.5130    5.7080 C   0  0  2  0  0  0
   -0.0830   25.6020    4.6010 C   0  0  0  0  0  0
    0.8840   25.9080    3.9030 O   0  0  0  0  0  0
   -1.1030   25.6910    6.8900 C   0  0  0  0  0  0
   -0.8500   26.3150    8.2280 C   0  0  0  0  0  0
   -1.8640   26.7780    9.0390 N   0  0  0  0  0  0
    0.3030   26.5430    8.9010 C   0  0  0  0  0  0
   -1.3470   27.2670   10.1510 C   0  0  0  0  0  0
   -0.0340   27.1380   10.0930 N   0  0  0  0  0  0
   -0.7730   24.4790    4.4480 N   0  0  0  0  0  0
   -0.6280   23.6260    3.2820 C   0  0  2  0  0  0
   -2.0260   23.3290    2.7570 C   0  0  0  0  0  0
   -2.9660   24.0760    3.0410 O   0  0  0  0  0  0
    0.1110   22.3460    3.6290 C   0  0  0  0  0  0
   -2.1530   22.2550    1.9830 N   0  0  0  0  0  0
   -3.4540   21.7120    1.5890 C   0  0  2  0  0  0
   -4.2960   22.5730    0.6540 C   0  0  0  0  0  0
   -4.6580   22.1250   -0.4360 O   0  0  0  0  0  0
   -4.2960   21.4130    2.8330 C   0  0  0  0  0  0
   -4.1190   20.0300    3.3660 C   0  0  0  0  0  0
   -3.1830   19.1780    2.8140 C   0  0  0  0  0  0
   -4.9030   19.5730    4.4090 C   0  0  0  0  0  0
   -3.0230   17.8960    3.3020 C   0  0  0  0  0  0
   -4.7510   18.2940    4.9000 C   0  0  0  0  0  0
   -3.8070   17.4550    4.3440 C   0  0  0  0  0  0
   -4.5980   23.7950    1.0930 N   0  0  0  0  0  0
   -5.7640   24.5470    0.6240 C   0  0  2  0  0  0
   -6.9910   23.7320    1.0250 C   0  0  0  0  0  0
   -7.4300   23.7990    2.1740 O   0  0  0  0  0  0
   -5.7300   24.8050   -0.8890 C   0  0  0  0  0  0
   -4.5930   25.5660   -1.2580 O   0  0  0  0  0  0
   -7.5270   22.9810    0.0630 N   0  0  0  0  0  0
   -8.4720   21.8760    0.2820 C   0  0  2  0  0  0
   -9.3500   21.9220    1.5310 C   0  0  0  0  0  0
  -10.5520   22.1720    1.4530 O   0  0  0  0  0  0
   -7.6920   20.5570    0.3050 C   0  0  0  0  0  0
   -8.7310   21.6660    2.6780 N   0  0  0  0  0  0
   -9.4550   21.4180    3.9190 C   0  0  2  0  0  0
   -9.3920   22.6000    4.8820 C   0  0  0  0  0  0
  -10.2360   22.7570    5.7670 O   0  0  0  0  0  0
   -8.8930   20.1670    4.5890 C   0  0  0  0  0  0
   -9.6780   19.6630    5.7750 C   0  0  0  0  0  0
   -9.2990   18.2220    6.0410 C   0  0  0  0  0  0
  -10.3430   17.5130    6.8780 C   0  0  0  0  0  0
  -10.5350   16.1180    6.3940 N   0  3  0  0  0  0
   -8.4880   23.4290    4.7960 O   0  0  0  0  0  0
   -9.7333   35.8901   10.7448 H   0  0  0  0  0  0
   -8.1159   36.6377   10.9723 H   0  0  0  0  0  0
   -8.9878   36.8812    8.8656 H   0  0  0  0  0  0
   -8.8346   37.5097    5.8654 H   0  0  0  0  0  0
  -10.6449   36.1876    7.6081 H   0  0  0  0  0  0
  -10.5604   35.8803    9.3759 H   0  0  0  0  0  0
  -10.2699   34.5395    8.2164 H   0  0  0  0  0  0
   -7.1398   35.3500    9.2260 H   0  0  0  0  0  0
   -8.4630   34.1356    9.2574 H   0  0  0  0  0  0
   -6.1486   34.8076   11.7704 H   0  0  0  0  0  0
   -5.8629   33.0380   13.4779 H   0  0  0  0  0  0
   -7.7450   31.8569   14.4731 H   0  0  0  0  0  0
  -10.0764   32.4518   13.7441 H   0  0  0  0  0  0
  -10.3849   34.2181   12.0324 H   0  0  0  0  0  0
   -4.3869   35.0540    6.1732 H   0  0  0  0  0  0
   -4.2748   33.3527    5.6078 H   0  0  0  0  0  0
   -5.9634   35.6830    7.2105 H   0  0  0  0  0  0
   -6.7727   34.2125    7.8503 H   0  0  0  0  0  0
   -6.9332   34.5211    4.8883 H   0  0  0  0  0  0
   -3.3035   34.8020    3.9975 H   0  0  0  0  0  0
   -4.4746   36.9005    4.5835 H   0  0  0  0  0  0
   -5.9763   36.2685    3.8270 H   0  0  0  0  0  0
   -4.5223   36.5745    2.8176 H   0  0  0  0  0  0
   -4.6175   32.8542    3.1510 H   0  0  0  0  0  0
   -4.6063   34.2182    1.9822 H   0  0  0  0  0  0
   -6.0604   33.9121    2.9915 H   0  0  0  0  0  0
   -5.2177   32.4059    7.3735 H   0  0  0  0  0  0
   -5.6997   30.1757    7.8261 H   0  0  0  0  0  0
   -8.0068   30.4661    5.8277 H   0  0  0  0  0  0
   -7.6637   28.9540    6.7346 H   0  0  0  0  0  0
   -8.6435   31.6249    7.7588 H   0  0  0  0  0  0
   -9.3316   29.9822    7.9922 H   0  0  0  0  0  0
   -7.8006   29.4256    9.6473 H   0  0  0  0  0  0
   -6.5568   30.5672    9.0338 H   0  0  0  0  0  0
   -7.4446   31.3846   11.1426 H   0  0  0  0  0  0
   -7.9802   32.4670    9.8128 H   0  0  0  0  0  0
   -9.7652   32.0332   11.3919 H   0  0  0  0  0  0
   -9.6051   30.2674   11.1035 H   0  0  0  0  0  0
  -10.1407   31.3498    9.7737 H   0  0  0  0  0  0
   -3.6082   30.7209    6.4713 H   0  0  0  0  0  0
   -3.6744   28.5896    4.2877 H   0  0  0  0  0  0
   -2.2880   31.2557    4.4427 H   0  0  0  0  0  0
   -1.3317   29.9131    3.7289 H   0  0  0  0  0  0
   -4.8710   29.1725    2.5105 H   0  0  0  0  0  0
   -3.2592   31.9078   -0.2810 H   0  0  0  0  0  0
   -2.1171   27.0519    4.2001 H   0  0  0  0  0  0
    0.2157   27.1769    6.0790 H   0  0  0  0  0  0
   -2.1911   25.5621    6.7932 H   0  0  0  0  0  0
   -0.6160   24.7047    6.8953 H   0  0  0  0  0  0
    1.3588   26.3453    8.6641 H   0  0  0  0  0  0
   -1.9087   27.7033   10.9770 H   0  0  0  0  0  0
   -1.4762   24.2028    5.2475 H   0  0  0  0  0  0
   -0.0244   24.1696    2.5402 H   0  0  0  0  0  0
    1.1151   22.5926    4.0045 H   0  0  0  0  0  0
    0.1996   21.7185    2.7299 H   0  0  0  0  0  0
   -0.4463   21.7995    4.4041 H   0  0  0  0  0  0
   -1.2276   21.7716    1.6368 H   0  0  0  0  0  0
   -3.1452   20.8212    1.0223 H   0  0  0  0  0  0
   -4.0204   22.1097    3.6384 H   0  0  0  0  0  0
   -5.3624   21.5346    2.5919 H   0  0  0  0  0  0
   -2.5642   19.5207    1.9847 H   0  0  0  0  0  0
   -5.6510   20.2327    4.8488 H   0  0  0  0  0  0
   -2.2768   17.2341    2.8626 H   0  0  0  0  0  0
   -5.3740   17.9467    5.7242 H   0  0  0  0  0  0
   -3.6822   16.4432    4.7298 H   0  0  0  0  0  0
   -3.9239   24.2361    1.8420 H   0  0  0  0  0  0
   -5.7436   25.5341    1.1089 H   0  0  0  0  0  0
   -5.6959   23.8445   -1.4240 H   0  0  0  0  0  0
   -6.6325   25.3588   -1.1869 H   0  0  0  0  0  0
   -4.4284   25.8330   -2.3123 H   0  0  0  0  0  0
   -7.2119   23.2410   -0.9583 H   0  0  0  0  0  0
   -9.1562   22.0117   -0.5686 H   0  0  0  0  0  0
   -7.0489   20.4957   -0.5854 H   0  0  0  0  0  0
   -8.3980   19.7135    0.3061 H   0  0  0  0  0  0
   -7.0692   20.5151    1.2107 H   0  0  0  0  0  0
   -7.6312   21.6450    2.6692 H   0  0  0  0  0  0
  -10.5028   21.2790    3.6145 H   0  0  0  0  0  0
  -10.1658   23.6185    6.4473 H   0  0  0  0  0  0
   -8.8637   19.3429    3.8610 H   0  0  0  0  0  0
   -7.8751   20.3715    4.9524 H   0  0  0  0  0  0
   -9.4439   20.2769    6.6573 H   0  0  0  0  0  0
  -10.7542   19.7292    5.5573 H   0  0  0  0  0  0
   -9.1998   17.6866    5.0853 H   0  0  0  0  0  0
   -8.3413   18.1884    6.5812 H   0  0  0  0  0  0
  -10.0152   17.4865    7.9277 H   0  0  0  0  0  0
  -11.2990   18.0524    6.8059 H   0  0  0  0  0  0
  -11.2953   15.6171    7.0113 H   0  0  0  0  0  0
   -9.5839   15.5702    6.4675 H   0  0  0  0  0  0
  -10.8676   16.1362    5.3457 H   0  0  0  0  0  0
  1  2  1  0  0  0
  1  8  1  0  0  0
  1 88  1  0  0  0
  1 89  1  0  0  0
  2  9  2  0  0  0
  2 13  1  0  0  0
  3  4  1  0  0  0
  3  7  1  0  0  0
  3  8  1  0  0  0
  3 90  1  0  0  0
  4  5  1  0  0  0
  4  6  2  0  0  0
  4 15  1  0  0  0
  5 91  1  0  0  0
  7 92  1  0  0  0
  7 93  1  0  0  0
  7 94  1  0  0  0
  8 95  1  0  0  0
  8 96  1  0  0  0
  9 10  1  0  0  0
  9 97  1  0  0  0
 10 11  2  0  0  0
 10 98  1  0  0  0
 11 12  1  0  0  0
 11 99  1  0  0  0
 12 13  2  0  0  0
 12100  1  0  0  0
 13101  1  0  0  0
 14 18  1  0  0  0
 14 19  1  0  0  0
 14102  1  0  0  0
 14103  1  0  0  0
 15 18  1  0  0  0
 15104  1  0  0  0
 15105  1  0  0  0
 16 17  2  0  0  0
 16 18  1  0  0  0
 16 22  1  0  0  0
 18106  1  0  0  0
 19 20  1  0  0  0
 19 21  1  0  0  0
 19107  1  0  0  0
 20108  1  0  0  0
 20109  1  0  0  0
 20110  1  0  0  0
 21111  1  0  0  0
 21112  1  0  0  0
 21113  1  0  0  0
 22 23  1  0  0  0
 22114  1  0  0  0
 23 24  1  0  0  0
 23 26  1  0  0  0
 23115  1  0  0  0
 24 25  2  0  0  0
 24 31  1  0  0  0
 26 27  1  0  0  0
 26116  1  0  0  0
 26117  1  0  0  0
 27 28  1  0  0  0
 27118  1  0  0  0
 27119  1  0  0  0
 28 29  1  0  0  0
 28120  1  0  0  0
 28121  1  0  0  0
 29 30  1  0  0  0
 29122  1  0  0  0
 29123  1  0  0  0
 30124  1  0  0  0
 30125  1  0  0  0
 30126  1  0  0  0
 31 32  1  0  0  0
 31127  1  0  0  0
 32 33  1  0  0  0
 32 35  1  0  0  0
 32128  1  0  0  0
 33 34  2  0  0  0
 33 41  1  0  0  0
 35 36  1  0  0  0
 35129  1  0  0  0
 35130  1  0  0  0
 36 37  2  0  0  0
 36 38  1  0  0  0
 37 39  1  0  0  0
 38 40  2  0  0  0
 38131  1  0  0  0
 39 40  1  0  0  0
 39132  1  0  0  0
 41 42  1  0  0  0
 41133  1  0  0  0
 42 43  1  0  0  0
 42 45  1  0  0  0
 42134  1  0  0  0
 43 44  2  0  0  0
 43 51  1  0  0  0
 45 46  1  0  0  0
 45135  1  0  0  0
 45136  1  0  0  0
 46 47  2  0  0  0
 46 48  1  0  0  0
 47 49  1  0  0  0
 48 50  2  0  0  0
 48137  1  0  0  0
 49 50  1  0  0  0
 49138  1  0  0  0
 51 52  1  0  0  0
 51139  1  0  0  0
 52 53  1  0  0  0
 52 55  1  0  0  0
 52140  1  0  0  0
 53 54  2  0  0  0
 53 56  1  0  0  0
 55141  1  0  0  0
 55142  1  0  0  0
 55143  1  0  0  0
 56 57  1  0  0  0
 56144  1  0  0  0
 57 58  1  0  0  0
 57 60  1  0  0  0
 57145  1  0  0  0
 58 59  2  0  0  0
 58 67  1  0  0  0
 60 61  1  0  0  0
 60146  1  0  0  0
 60147  1  0  0  0
 61 62  2  0  0  0
 61 63  1  0  0  0
 62 64  1  0  0  0
 62148  1  0  0  0
 63 65  2  0  0  0
 63149  1  0  0  0
 64 66  2  0  0  0
 64150  1  0  0  0
 65 66  1  0  0  0
 65151  1  0  0  0
 66152  1  0  0  0
 67 68  1  0  0  0
 67153  1  0  0  0
 68 69  1  0  0  0
 68 71  1  0  0  0
 68154  1  0  0  0
 69 70  2  0  0  0
 69 73  1  0  0  0
 71 72  1  0  0  0
 71155  1  0  0  0
 71156  1  0  0  0
 72157  1  0  0  0
 73 74  1  0  0  0
 73158  1  0  0  0
 74 75  1  0  0  0
 74 77  1  0  0  0
 74159  1  0  0  0
 75 76  2  0  0  0
 75 78  1  0  0  0
 77160  1  0  0  0
 77161  1  0  0  0
 77162  1  0  0  0
 78 79  1  0  0  0
 78163  1  0  0  0
 79 80  1  0  0  0
 79 82  1  0  0  0
 79164  1  0  0  0
 80 81  1  0  0  0
 80 87  2  0  0  0
 81165  1  0  0  0
 82 83  1  0  0  0
 82166  1  0  0  0
 82167  1  0  0  0
 83 84  1  0  0  0
 83168  1  0  0  0
 83169  1  0  0  0
 84 85  1  0  0  0
 84170  1  0  0  0
 84171  1  0  0  0
 85 86  1  0  0  0
 85172  1  0  0  0
 85173  1  0  0  0
 86174  1  0  0  0
 86175  1  0  0  0
 86176  1  0  0  0
M  CHG  3   7   1  30   1  86   1
M  END
> <s_m_source_file>
../4z7i_ligand.sdf

> <i_m_source_file_index>
1

> <s_epik_input>
W2NIXTFbY0hdW2NIXVtjSF1bY0hdYzFbQ0gyXVtDSDJdW0NASF0oW05IMytdKVtQQEBdKD1PKShbT0hdKVtDSDJdW0NAQEhdKFtDSDJdW0NIXShbQ0gzXSlbQ0gzXSlDKD1PKVtOSF1bQ0BASF0oW0NIMl1bQ0gyXVtDSDJdW0NIMl1bTkgzK10pQyg9TylbTkhdW0NAQEhdKFtDSDJdQzI9TltDSDJdTj1bQ0hdMilDKD1PKVtOSF1bQ0BASF0oW0NIMl1DMz1OW0NIMl1OPVtDSF0zKUMoPU8pW05IXVtDQEBIXShbQ0gzXSlDKD1PKVtOSF1bQ0BASF0oW0NIMl1jNFtjSF1bY0hdW2NIXVtjSF1bY0hdNClDKD1PKVtOSF1bQ0BASF0oW0NIMl1bT0hdKUMoPU8pW05IXVtDQEBIXShbQ0gzXSlDKD1PKVtOSF1bQ0BIXShDKD1PKVtPSF0pW0NIMl1bQ0gyXVtDSDJdW0NIMl1bTkgzK10=

> <s_epik_cmdline>
J2VwaWtfYXBwJywgJy1pbWFlJywgJ2xpZ2FuZF9wcm8ubWFlJywgJy1vbWFlJywgJ2xpZ2FuZF9wcmVwLm1hZScsICctbXMnLCAnMScsICctcGgnLCAnNycsICctcGh0JywgJzAuNScsICctbnQn

> <s_epik_pKa_notes>
Molecule size exceeds maximum supported for generating protonation states

> <s_epik_Chemistry_Notes>
This compound has an imine and may undergo hydrolysis.

$$$$
