4z7n_ligand
                    3D
 Schrodinger Suite 2020-3.
 48 47  0  0  1  0            999 V2000
   50.1860  107.3530   74.6560 N   0  3  0  0  0  0
   50.9690  108.5390   74.9740 C   0  0  2  0  0  0
   51.4270  109.2310   73.6950 C   0  0  0  0  0  0
   50.9030  110.2800   73.3250 O   0  0  0  0  0  0
   52.1620  108.1700   75.8420 C   0  0  0  0  0  0
   52.4090  108.6430   73.0250 N   0  0  0  0  0  0
   52.8480  109.1730   71.7440 C   0  0  0  0  0  0
   53.7780  110.3520   71.9140 C   0  0  0  0  0  0
   54.7790  110.2750   72.6280 O   0  0  0  0  0  0
   53.4440  111.4580   71.2490 N   0  0  0  0  0  0
   54.3140  112.6320   71.1800 C   0  0  2  0  0  0
   54.1340  113.4700   72.4430 C   0  0  0  0  0  0
   53.4000  114.4620   72.4780 O   0  0  0  0  0  0
   54.0070  113.4420   69.9280 C   0  0  0  0  0  0
   54.9620  114.5960   69.7340 C   0  0  0  0  0  0
   56.1580  114.4390   70.0440 O   0  0  0  0  0  0
   54.5140  115.6610   69.2680 O   0  5  0  0  0  0
   54.8280  113.0590   73.5000 N   0  0  0  0  0  0
   54.7760  113.7580   74.7810 C   0  0  2  0  0  0
   56.1210  113.6800   75.4940 C   0  0  0  0  0  0
   56.8640  112.7100   75.3560 O   0  0  0  0  0  0
   53.6680  113.1900   75.6830 C   0  0  0  0  0  0
   52.2990  113.4410   75.0790 C   0  0  0  0  0  0
   53.8840  111.7040   75.9230 C   0  0  0  0  0  0
   56.4950  114.5860   76.2390 O   0  5  0  0  0  0
   49.3283  107.6372   74.0286 H   0  0  0  0  0  0
   49.8229  106.8929   75.5869 H   0  0  0  0  0  0
   50.8154  106.6331   74.1123 H   0  0  0  0  0  0
   50.2988  109.2053   75.5369 H   0  0  0  0  0  0
   51.8094  107.6729   76.7577 H   0  0  0  0  0  0
   52.7164  109.0815   76.1098 H   0  0  0  0  0  0
   52.8230  107.4887   75.2862 H   0  0  0  0  0  0
   52.8921  107.7484   73.4448 H   0  0  0  0  0  0
   53.3820  108.3893   71.1865 H   0  0  0  0  0  0
   51.9733  109.5037   71.1648 H   0  0  0  0  0  0
   52.4694  111.4649   70.7390 H   0  0  0  0  0  0
   55.3509  112.2698   71.1189 H   0  0  0  0  0  0
   54.0792  112.7917   69.0437 H   0  0  0  0  0  0
   52.9895  113.8539   69.9981 H   0  0  0  0  0  0
   55.4556  112.1626   73.3877 H   0  0  0  0  0  0
   54.5514  114.8031   74.5215 H   0  0  0  0  0  0
   53.7026  113.7025   76.6557 H   0  0  0  0  0  0
   52.1634  114.5200   74.9137 H   0  0  0  0  0  0
   51.5222  113.0749   75.7664 H   0  0  0  0  0  0
   52.2189  112.9101   74.1190 H   0  0  0  0  0  0
   54.8806  111.5443   76.3604 H   0  0  0  0  0  0
   53.8122  111.1640   74.9674 H   0  0  0  0  0  0
   53.1155  111.3288   76.6148 H   0  0  0  0  0  0
  1  2  1  0  0  0
  1 26  1  0  0  0
  1 27  1  0  0  0
  1 28  1  0  0  0
  2  3  1  0  0  0
  2  5  1  0  0  0
  2 29  1  0  0  0
  3  4  2  0  0  0
  3  6  1  0  0  0
  5 30  1  0  0  0
  5 31  1  0  0  0
  5 32  1  0  0  0
  6  7  1  0  0  0
  6 33  1  0  0  0
  7  8  1  0  0  0
  7 34  1  0  0  0
  7 35  1  0  0  0
  8  9  2  0  0  0
  8 10  1  0  0  0
 10 11  1  0  0  0
 10 36  1  0  0  0
 11 12  1  0  0  0
 11 14  1  0  0  0
 11 37  1  0  0  0
 12 13  2  0  0  0
 12 18  1  0  0  0
 14 15  1  0  0  0
 14 38  1  0  0  0
 14 39  1  0  0  0
 15 16  2  0  0  0
 15 17  1  0  0  0
 18 19  1  0  0  0
 18 40  1  0  0  0
 19 20  1  0  0  0
 19 22  1  0  0  0
 19 41  1  0  0  0
 20 21  2  0  0  0
 20 25  1  0  0  0
 22 23  1  0  0  0
 22 24  1  0  0  0
 22 42  1  0  0  0
 23 43  1  0  0  0
 23 44  1  0  0  0
 23 45  1  0  0  0
 24 46  1  0  0  0
 24 47  1  0  0  0
 24 48  1  0  0  0
M  CHG  3   1   1  17  -1  25  -1
M  END
> <s_m_source_file>
../4z7n_ligand.sdf

> <i_m_source_file_index>
1

> <s_epik_input>
W05IMytdW0NAQEhdKFtDSDNdKUMoPU8pW05IXVtDSDJdQyg9TylbTkhdW0NAQEhdKFtDSDJdQyg9TylbT0hdKUMoPU8pW05IXVtDQEhdKEMoPU8pW09IXSlbQ0hdKFtDSDNdKVtDSDNd

> <s_epik_cmdline>
J2VwaWtfYXBwJywgJy1pbWFlJywgJ2xpZ2FuZF9wcm8ubWFlJywgJy1vbWFlJywgJ2xpZ2FuZF9wcmVwLm1hZScsICctbXMnLCAnMScsICctcGgnLCAnNycsICctcGh0JywgJzAuNScsICctbnQn

> <r_epik_Ionization_Penalty>
  0.1259

> <r_epik_Ionization_Penalty_Charging>
  0.1259

> <r_epik_Ionization_Penalty_Neutral>
  0.0000

> <r_epik_State_Penalty>
  0.1134

> <r_epik_Charging_Adjusted_Penalty>
0.2392733434038

> <i_epik_Tot_Q>
-1

> <i_epik_Tot_abs_Q>
3

$$$$
