4z7q_ligand
                    3D
 Schrodinger Suite 2020-3.
 50 49  0  0  1  0            999 V2000
   51.1010  107.0930   74.8380 N   0  3  0  0  0  0
   51.9170  108.2710   75.1030 C   0  0  2  0  0  0
   52.0770  109.1140   73.8390 C   0  0  0  0  0  0
   51.3740  110.1080   73.6540 O   0  0  0  0  0  0
   53.2790  107.8600   75.6490 C   0  0  0  0  0  0
   53.0030  108.7110   72.9730 N   0  0  0  0  0  0
   53.2370  109.4100   71.7230 C   0  0  0  0  0  0
   54.2470  110.5350   71.8530 C   0  0  0  0  0  0
   55.1900  110.4500   72.6390 O   0  0  0  0  0  0
   54.0440  111.5930   71.0750 N   0  0  0  0  0  0
   54.9690  112.7200   71.0490 C   0  0  2  0  0  0
   54.8010  113.6050   72.2800 C   0  0  0  0  0  0
   54.1710  114.6600   72.2150 O   0  0  0  0  0  0
   54.7570  113.5430   69.7780 C   0  0  0  0  0  0
   55.6850  114.7320   69.6940 C   0  0  0  0  0  0
   56.7990  114.6570   70.2530 O   0  0  0  0  0  0
   55.2980  115.7430   69.0690 O   0  5  0  0  0  0
   55.3760  113.1720   73.3990 N   0  0  0  0  0  0
   55.2430  113.8880   74.6650 C   0  0  2  0  0  0
   56.5030  113.7530   75.5110 C   0  0  0  0  0  0
   56.8100  114.6220   76.3290 O   0  0  0  0  0  0
   54.0360  113.3750   75.4770 C   0  0  0  0  0  0
   52.7270  113.7470   74.7890 C   0  0  0  0  0  0
   54.1290  111.8670   75.6850 C   0  0  0  0  0  0
   57.2420  112.7750   75.3970 N   0  0  0  0  0  0
   50.1224  107.4057   74.4449 H   0  0  0  0  0  0
   50.9580  106.5286   75.7712 H   0  0  0  0  0  0
   51.6068  106.4556   74.0978 H   0  0  0  0  0  0
   51.3708  108.8482   75.8636 H   0  0  0  0  0  0
   53.1424  107.2549   76.5574 H   0  0  0  0  0  0
   53.8632  108.7597   75.8922 H   0  0  0  0  0  0
   53.8144  107.2687   74.8916 H   0  0  0  0  0  0
   53.5993  107.8219   73.2260 H   0  0  0  0  0  0
   53.6200  108.7021   70.9732 H   0  0  0  0  0  0
   52.2933  109.8478   71.3655 H   0  0  0  0  0  0
   53.1471  111.6028   70.4382 H   0  0  0  0  0  0
   55.9739  112.2726   71.0598 H   0  0  0  0  0  0
   54.9386  112.9101   68.8968 H   0  0  0  0  0  0
   53.7235  113.9189   69.7527 H   0  0  0  0  0  0
   55.9659  112.2448   73.3509 H   0  0  0  0  0  0
   55.1001  114.9362   74.3637 H   0  0  0  0  0  0
   54.0429  113.8528   76.4678 H   0  0  0  0  0  0
   52.6828  114.8373   74.6500 H   0  0  0  0  0  0
   51.8803  113.4221   75.4116 H   0  0  0  0  0  0
   52.6737  113.2500   73.8091 H   0  0  0  0  0  0
   55.0797  111.6234   76.1818 H   0  0  0  0  0  0
   54.0838  111.3590   74.7104 H   0  0  0  0  0  0
   53.2905  111.5311   76.3128 H   0  0  0  0  0  0
   56.9967  111.9813   74.6760 H   0  0  0  0  0  0
   58.1476  112.6948   76.0162 H   0  0  0  0  0  0
  1  2  1  0  0  0
  1 26  1  0  0  0
  1 27  1  0  0  0
  1 28  1  0  0  0
  2  3  1  0  0  0
  2  5  1  0  0  0
  2 29  1  0  0  0
  3  4  2  0  0  0
  3  6  1  0  0  0
  5 30  1  0  0  0
  5 31  1  0  0  0
  5 32  1  0  0  0
  6  7  1  0  0  0
  6 33  1  0  0  0
  7  8  1  0  0  0
  7 34  1  0  0  0
  7 35  1  0  0  0
  8  9  2  0  0  0
  8 10  1  0  0  0
 10 11  1  0  0  0
 10 36  1  0  0  0
 11 12  1  0  0  0
 11 14  1  0  0  0
 11 37  1  0  0  0
 12 13  2  0  0  0
 12 18  1  0  0  0
 14 15  1  0  0  0
 14 38  1  0  0  0
 14 39  1  0  0  0
 15 16  2  0  0  0
 15 17  1  0  0  0
 18 19  1  0  0  0
 18 40  1  0  0  0
 19 20  1  0  0  0
 19 22  1  0  0  0
 19 41  1  0  0  0
 20 21  2  0  0  0
 20 25  1  0  0  0
 22 23  1  0  0  0
 22 24  1  0  0  0
 22 42  1  0  0  0
 23 43  1  0  0  0
 23 44  1  0  0  0
 23 45  1  0  0  0
 24 46  1  0  0  0
 24 47  1  0  0  0
 24 48  1  0  0  0
 25 49  1  0  0  0
 25 50  1  0  0  0
M  CHG  2   1   1  17  -1
M  END
> <s_m_source_file>
../4z7q_ligand.sdf

> <i_m_source_file_index>
1

> <s_epik_input>
W05IMytdW0NAQEhdKFtDSDNdKUMoPU8pW05IXVtDSDJdQyg9TylbTkhdW0NAQEhdKFtDSDJdQyg9TylbT0hdKUMoPU8pW05IXVtDQEhdKEMoPU8pW05IMl0pW0NIXShbQ0gzXSlbQ0gzXQ==

> <s_epik_cmdline>
J2VwaWtfYXBwJywgJy1pbWFlJywgJ2xpZ2FuZF9wcm8ubWFlJywgJy1vbWFlJywgJ2xpZ2FuZF9wcmVwLm1hZScsICctbXMnLCAnMScsICctcGgnLCAnNycsICctcGh0JywgJzAuNScsICctbnQn

> <r_epik_Ionization_Penalty>
  0.1253

> <r_epik_Ionization_Penalty_Charging>
  0.1253

> <r_epik_Ionization_Penalty_Neutral>
  0.0000

> <r_epik_State_Penalty>
  0.1134

> <r_epik_Charging_Adjusted_Penalty>
0.23870273614071

> <i_epik_Tot_Q>
0

> <i_epik_Tot_abs_Q>
2

$$$$
