4z83_ligand
                    3D
 Schrodinger Suite 2020-3.
 39 42  0  0  1  0            999 V2000
  -14.1230  -11.4860    6.4350 C   0  0  0  0  0  0
  -13.4780  -10.1140    6.3050 C   0  0  1  0  0  0
  -14.5410   -8.9990    6.3040 C   0  0  0  0  0  0
  -12.5910   -8.1410    7.2840 C   0  0  0  0  0  0
  -17.6600  -14.4300    3.0810 Br  0  0  0  0  0  0
  -16.0080  -12.0710    3.2500 C   0  0  0  0  0  0
  -15.1130  -11.3740    4.0820 C   0  0  0  0  0  0
  -14.9260  -11.9540    5.3040 C   0  0  0  0  0  0
  -16.4860  -13.1810    3.8380 C   0  0  0  0  0  0
  -13.9750  -12.1680    7.4320 O   0  0  0  0  0  0
  -13.9330   -7.7840    6.8710 N   0  3  0  0  0  0
   -6.2640  -11.0620    8.5610 O   0  0  0  0  0  0
   -6.9160  -10.8610    7.5380 C   0  0  0  0  0  0
   -6.2990  -10.7780    6.2880 N   0  0  0  0  0  0
   -6.9990  -10.5670    5.1480 C   0  0  0  0  0  0
   -8.3200  -10.3810    5.0860 N   0  0  0  0  0  0
   -9.0170  -10.4310    6.3010 C   0  0  0  0  0  0
  -10.3980  -10.2140    6.2720 C   0  0  0  0  0  0
   -8.3810  -10.6910    7.5230 C   0  0  0  0  0  0
   -9.1420  -10.8000    8.6840 C   0  0  0  0  0  0
  -10.5100  -10.5970    8.6370 C   0  0  0  0  0  0
  -11.1430  -10.2420    7.4510 C   0  0  0  0  0  0
  -12.5510   -9.6830    7.4800 C   0  0  2  0  0  0
  -15.8770  -13.4150    5.4410 S   0  0  0  0  0  0
  -12.9165  -10.2391    5.3674 H   0  0  0  0  0  0
  -14.8729   -8.8098    5.2725 H   0  0  0  0  0  0
  -15.4010   -9.3117    6.9144 H   0  0  0  0  0  0
  -11.8748   -7.8355    6.5070 H   0  0  0  0  0  0
  -12.3492   -7.6292    8.2272 H   0  0  0  0  0  0
  -16.2819  -11.7484    2.2455 H   0  0  0  0  0  0
  -14.6137  -10.4538    3.7785 H   0  0  0  0  0  0
  -13.9089   -6.9945    6.1054 H   0  0  0  0  0  0
  -14.5284   -7.4430    7.7308 H   0  0  0  0  0  0
   -5.2074  -10.8851    6.2053 H   0  0  0  0  0  0
   -6.4426  -10.5475    4.2109 H   0  0  0  0  0  0
  -10.8958  -10.0216    5.3216 H   0  0  0  0  0  0
   -8.6599  -11.0453    9.6303 H   0  0  0  0  0  0
  -11.1012  -10.7174    9.5448 H   0  0  0  0  0  0
  -12.8603  -10.0702    8.4620 H   0  0  0  0  0  0
  1  2  1  0  0  0
  1  8  1  0  0  0
  1 10  2  0  0  0
  2  3  1  0  0  0
  2 23  1  0  0  0
  2 25  1  0  0  0
  3 11  1  0  0  0
  3 26  1  0  0  0
  3 27  1  0  0  0
  4 11  1  0  0  0
  4 23  1  0  0  0
  4 28  1  0  0  0
  4 29  1  0  0  0
  5  9  1  0  0  0
  6  7  1  0  0  0
  6  9  2  0  0  0
  6 30  1  0  0  0
  7  8  2  0  0  0
  7 31  1  0  0  0
  8 24  1  0  0  0
  9 24  1  0  0  0
 11 32  1  0  0  0
 11 33  1  0  0  0
 12 13  2  0  0  0
 13 14  1  0  0  0
 13 19  1  0  0  0
 14 15  1  0  0  0
 14 34  1  0  0  0
 15 16  2  0  0  0
 15 35  1  0  0  0
 16 17  1  0  0  0
 17 18  2  0  0  0
 17 19  1  0  0  0
 18 22  1  0  0  0
 18 36  1  0  0  0
 19 20  2  0  0  0
 20 21  1  0  0  0
 20 37  1  0  0  0
 21 22  2  0  0  0
 21 38  1  0  0  0
 22 23  1  0  0  0
 23 39  1  0  0  0
M  CHG  1  11   1
M  END
> <s_m_source_file>
../4z83_ligand.sdf

> <i_m_source_file_index>
1

> <s_epik_input>
QnJjKHMxKVtjSF1bY0hdYzFDKD1PKVtDQEhdMltDSDJdW05IMitdW0NIMl1bQ0BASF0yYyhbY0hdMylbY0hdW2NIXWMoYzM0KWMoPU8pW25IXVtjSF1uNA==

> <s_epik_cmdline>
J2VwaWtfYXBwJywgJy1pbWFlJywgJ2xpZ2FuZF9wcm8ubWFlJywgJy1vbWFlJywgJ2xpZ2FuZF9wcmVwLm1hZScsICctbXMnLCAnMScsICctcGgnLCAnNycsICctcGh0JywgJzAuNScsICctbnQn

> <r_lp_tautomer_probability>
1

> <r_epik_Ionization_Penalty>
  0.0098

> <r_epik_Ionization_Penalty_Charging>
  0.0098

> <r_epik_Ionization_Penalty_Neutral>
  0.0000

> <r_epik_State_Penalty>
 -0.0000

> <r_epik_Charging_Adjusted_Penalty>
0.00980272417905733

> <i_epik_Tot_Q>
1

> <i_epik_Tot_abs_Q>
1

$$$$
