4z88_ligand
                    3D
 Schrodinger Suite 2020-3.
212213  0  0  1  0            999 V2000
  -17.7890   -2.8080  -57.1170 N   0  3  0  0  0  0
  -17.8030   -3.6960  -55.9070 C   0  0  2  0  0  0
  -19.0480   -3.4240  -55.0420 C   0  0  0  0  0  0
  -19.4020   -2.2820  -54.7460 O   0  0  0  0  0  0
  -16.4850   -3.5490  -55.1020 C   0  0  0  0  0  0
  -16.6370   -3.0370  -53.6830 C   0  0  0  0  0  0
  -15.3670   -3.1720  -52.8530 C   0  0  0  0  0  0
  -14.8350   -4.5360  -52.8440 N   0  0  0  0  0  0
  -13.6010   -4.9020  -53.1930 C   0  0  0  0  0  0
  -12.6950   -4.0200  -53.6040 N   0  0  0  0  0  0
  -13.2720   -6.1850  -53.1270 N   0  0  0  0  0  0
  -19.6900   -4.5080  -54.6290 N   0  0  0  0  0  0
  -21.0590   -4.4650  -54.1180 C   0  0  2  0  0  0
  -21.1350   -4.4040  -52.5970 C   0  0  0  0  0  0
  -20.3510   -5.0550  -51.9050 O   0  0  0  0  0  0
  -21.8230   -5.6520  -54.7060 C   0  0  0  0  0  0
  -21.9750   -5.4280  -56.1940 C   0  0  0  0  0  0
  -22.4030   -6.6470  -56.9540 C   0  0  0  0  0  0
  -22.9420   -6.2530  -58.3000 C   0  0  0  0  0  0
  -23.1710   -7.3940  -59.2220 N   0  3  0  0  0  0
  -22.0740   -3.6000  -52.0870 N   0  0  0  0  0  0
  -22.3010   -3.4910  -50.6450 C   0  0  2  0  0  0
  -23.0200   -4.7240  -50.1010 C   0  0  0  0  0  0
  -23.8720   -5.2990  -50.7850 O   0  0  0  0  0  0
  -23.1270   -2.2390  -50.3140 C   0  0  0  0  0  0
  -22.3880   -0.9020  -50.4080 C   0  0  0  0  0  0
  -23.3760    0.2520  -50.4160 C   0  0  0  0  0  0
  -21.3860   -0.7440  -49.2720 C   0  0  0  0  0  0
  -22.6940   -5.1310  -48.8620 N   0  0  0  0  0  0
  -23.3850   -6.2720  -48.2590 C   0  0  2  0  0  0
  -24.7770   -5.9030  -47.7580 C   0  0  0  0  0  0
  -25.0680   -4.7230  -47.5570 O   0  0  0  0  0  0
  -22.4770   -6.6560  -47.0850 C   0  0  0  0  0  0
  -21.7730   -5.3940  -46.7260 C   0  0  0  0  0  0
  -21.6280   -4.6040  -47.9910 C   0  0  0  0  0  0
  -25.6240   -6.9160  -47.5830 N   0  0  0  0  0  0
  -26.9380   -6.7490  -46.9510 C   0  0  2  0  0  0
  -26.7930   -6.6760  -45.4340 C   0  0  0  0  0  0
  -26.0420   -7.4540  -44.8310 O   0  0  0  0  0  0
  -27.8960   -7.9010  -47.3080 C   0  0  0  0  0  0
  -28.4010   -7.8600  -48.7720 C   0  0  0  0  0  0
  -29.7820   -7.2260  -48.8830 C   0  0  0  0  0  0
  -29.8590   -6.1790  -49.5440 O   0  0  0  0  0  0
  -30.7830   -7.7470  -48.3070 O   0  0  0  0  0  0
  -27.4940   -5.7300  -44.8160 N   0  0  0  0  0  0
  -27.5880   -5.6910  -43.3610 C   0  0  2  0  0  0
  -28.4940   -6.8500  -42.9620 C   0  0  0  0  0  0
  -29.6270   -6.9160  -43.4330 O   0  0  0  0  0  0
  -28.1770   -4.3650  -42.8470 C   0  0  2  0  0  0
  -27.2050   -3.2100  -43.1130 C   0  0  0  0  0  0
  -28.4520   -4.4520  -41.3530 C   0  0  0  0  0  0
  -27.8710   -1.8520  -43.1710 C   0  0  0  0  0  0
  -28.0000   -7.7660  -42.1060 N   0  0  0  0  0  0
  -28.8270   -8.9060  -41.7000 C   0  0  2  0  0  0
  -30.1520   -8.4520  -41.0890 C   0  0  0  0  0  0
  -30.1640   -7.6270  -40.1750 O   0  0  0  0  0  0
  -27.9560   -9.6240  -40.6590 C   0  0  0  0  0  0
  -26.5600   -9.2040  -40.9740 C   0  0  0  0  0  0
  -26.6670   -7.8000  -41.4760 C   0  0  0  0  0  0
  -31.2510   -8.9830  -41.6170 N   0  0  0  0  0  0
  -32.5990   -8.5420  -41.2420 C   0  0  2  0  0  0
  -32.9530   -8.9260  -39.8110 C   0  0  0  0  0  0
  -33.5890   -8.1540  -39.1010 O   0  0  0  0  0  0
  -33.6170   -9.0940  -42.2390 C   0  0  0  0  0  0
  -33.3750   -8.5550  -43.6580 C   0  0  0  0  0  0
  -32.8400   -9.6390  -44.5880 C   0  0  0  0  0  0
  -32.2590   -9.0660  -45.8810 C   0  0  0  0  0  0
  -33.1550   -9.2410  -47.0600 N   0  3  0  0  0  0
  -32.4920  -10.0940  -39.3750 N   0  0  0  0  0  0
  -32.7080  -10.5420  -37.9990 C   0  0  2  0  0  0
  -31.8730   -9.7890  -36.9540 C   0  0  0  0  0  0
  -32.0710   -9.9770  -35.7560 O   0  0  0  0  0  0
  -32.4540  -12.0470  -37.8890 C   0  0  0  0  0  0
  -33.3910  -12.8610  -38.7730 C   0  0  0  0  0  0
  -34.4340  -12.3730  -39.2080 O   0  0  0  0  0  0
  -33.0160  -14.1020  -39.0480 N   0  0  0  0  0  0
  -30.9400   -8.9500  -37.4040 N   0  0  0  0  0  0
  -30.1350   -8.1140  -36.5090 C   0  0  2  0  0  0
  -30.5660   -6.6390  -36.5300 C   0  0  0  0  0  0
  -30.2370   -5.8850  -35.6150 O   0  0  0  0  0  0
  -28.6530   -8.2270  -36.8770 C   0  0  0  0  0  0
  -28.1200   -9.6560  -36.8190 C   0  0  0  0  0  0
  -27.8890  -10.1390  -35.4070 C   0  0  0  0  0  0
  -27.3050  -11.5400  -35.4330 C   0  0  0  0  0  0
  -26.6930  -11.9110  -34.1330 N   0  3  0  0  0  0
  -31.3370   -6.2610  -37.5550 N   0  0  0  0  0  0
  -31.7110   -4.8840  -37.8440 C   0  0  2  0  0  0
  -33.0180   -4.5100  -37.1050 C   0  0  0  0  0  0
  -33.3260   -4.9940  -35.9910 O   0  0  0  0  0  0
  -31.9090   -4.7920  -39.3810 C   0  0  0  0  0  0
  -32.1760   -3.4600  -40.0870 C   0  0  0  0  0  0
  -32.1990   -3.6120  -41.6110 C   0  0  0  0  0  0
  -33.3980   -4.3920  -42.1390 C   0  0  0  0  0  0
  -33.5960   -4.1630  -43.5980 N   0  3  0  0  0  0
  -33.7980   -3.6480  -37.7420 N   0  0  0  0  0  0
  -18.7315   -2.9287  -57.6713 H   0  0  0  0  0  0
  -16.9444   -3.0848  -57.7651 H   0  0  0  0  0  0
  -17.6809   -1.7598  -56.8013 H   0  0  0  0  0  0
  -17.8719   -4.7316  -56.2715 H   0  0  0  0  0  0
  -15.9908   -4.5287  -55.0257 H   0  0  0  0  0  0
  -15.8183   -2.8411  -55.6162 H   0  0  0  0  0  0
  -16.9060   -1.9706  -53.7048 H   0  0  0  0  0  0
  -17.4284   -3.6043  -53.1713 H   0  0  0  0  0  0
  -14.5889   -2.5115  -53.2633 H   0  0  0  0  0  0
  -15.5776   -2.8875  -51.8115 H   0  0  0  0  0  0
  -15.4740   -5.3735  -52.5275 H   0  0  0  0  0  0
  -12.9541   -2.9526  -53.6636 H   0  0  0  0  0  0
  -11.6864   -4.3577  -53.8844 H   0  0  0  0  0  0
  -14.0115   -6.9257  -52.7887 H   0  0  0  0  0  0
  -19.1525   -5.4663  -54.6818 H   0  0  0  0  0  0
  -21.4898   -3.5130  -54.4617 H   0  0  0  0  0  0
  -21.2606   -6.5788  -54.5193 H   0  0  0  0  0  0
  -22.8131   -5.7221  -54.2318 H   0  0  0  0  0  0
  -22.7336   -4.6516  -56.3723 H   0  0  0  0  0  0
  -21.0124   -5.1039  -56.6162 H   0  0  0  0  0  0
  -21.5399   -7.3148  -57.0920 H   0  0  0  0  0  0
  -23.1876   -7.1735  -56.3908 H   0  0  0  0  0  0
  -23.9078   -5.7421  -58.1730 H   0  0  0  0  0  0
  -22.2312   -5.5754  -58.7956 H   0  0  0  0  0  0
  -23.5636   -7.0192  -60.1788 H   0  0  0  0  0  0
  -23.8979   -8.0874  -58.7738 H   0  0  0  0  0  0
  -22.2212   -7.9207  -59.3965 H   0  0  0  0  0  0
  -22.6850   -3.0101  -52.7861 H   0  0  0  0  0  0
  -21.2925   -3.4221  -50.2112 H   0  0  0  0  0  0
  -23.9774   -2.1667  -51.0080 H   0  0  0  0  0  0
  -23.5010   -2.3087  -49.2819 H   0  0  0  0  0  0
  -21.8268   -0.8826  -51.3539 H   0  0  0  0  0  0
  -24.0893    0.1183  -51.2427 H   0  0  0  0  0  0
  -22.8326    1.1990  -50.5501 H   0  0  0  0  0  0
  -23.9215    0.2743  -49.4610 H   0  0  0  0  0  0
  -20.6813   -1.5886  -49.2845 H   0  0  0  0  0  0
  -21.9209   -0.7270  -48.3110 H   0  0  0  0  0  0
  -20.8321    0.1977  -49.4000 H   0  0  0  0  0  0
  -23.5302   -7.0617  -49.0108 H   0  0  0  0  0  0
  -23.0916   -7.0324  -46.2540 H   0  0  0  0  0  0
  -21.7746   -7.4395  -47.4057 H   0  0  0  0  0  0
  -22.3686   -4.8398  -45.9857 H   0  0  0  0  0  0
  -20.7875   -5.6324  -46.2995 H   0  0  0  0  0  0
  -20.6508   -4.7632  -48.4702 H   0  0  0  0  0  0
  -21.7858   -3.5275  -47.8287 H   0  0  0  0  0  0
  -25.3046   -7.9084  -47.9340 H   0  0  0  0  0  0
  -27.3199   -5.7992  -47.3535 H   0  0  0  0  0  0
  -27.3817   -8.8629  -47.1659 H   0  0  0  0  0  0
  -28.7804   -7.8581  -46.6553 H   0  0  0  0  0  0
  -27.7027   -7.2706  -49.3843 H   0  0  0  0  0  0
  -28.4610   -8.8845  -49.1680 H   0  0  0  0  0  0
  -31.7742   -7.2783  -48.3958 H   0  0  0  0  0  0
  -28.0080   -4.9686  -45.4210 H   0  0  0  0  0  0
  -26.5658   -5.7844  -42.9655 H   0  0  0  0  0  0
  -29.1243   -4.1750  -43.3729 H   0  0  0  0  0  0
  -26.4535   -3.1710  -42.3106 H   0  0  0  0  0  0
  -26.7025   -3.3686  -44.0786 H   0  0  0  0  0  0
  -29.1493   -5.2796  -41.1561 H   0  0  0  0  0  0
  -28.8967   -3.5075  -41.0064 H   0  0  0  0  0  0
  -27.5087   -4.6318  -40.8164 H   0  0  0  0  0  0
  -27.1122   -1.0794  -43.3642 H   0  0  0  0  0  0
  -28.3679   -1.6461  -42.2115 H   0  0  0  0  0  0
  -28.6169   -1.8437  -43.9794 H   0  0  0  0  0  0
  -29.0887   -9.5205  -42.5740 H   0  0  0  0  0  0
  -28.2578   -9.3098  -39.6490 H   0  0  0  0  0  0
  -28.0866  -10.7116  -40.7590 H   0  0  0  0  0  0
  -25.9463   -9.2585  -40.0628 H   0  0  0  0  0  0
  -26.1398   -9.8728  -41.7396 H   0  0  0  0  0  0
  -25.9000   -7.5628  -42.2279 H   0  0  0  0  0  0
  -26.6261   -7.0590  -40.6641 H   0  0  0  0  0  0
  -31.1210   -9.7822  -42.3616 H   0  0  0  0  0  0
  -32.5798   -7.4432  -41.2891 H   0  0  0  0  0  0
  -33.5433  -10.1911  -42.2688 H   0  0  0  0  0  0
  -34.6309   -8.8030  -41.9269 H   0  0  0  0  0  0
  -34.3212   -8.1779  -44.0733 H   0  0  0  0  0  0
  -32.6399   -7.7376  -43.6193 H   0  0  0  0  0  0
  -32.0429  -10.1994  -44.0775 H   0  0  0  0  0  0
  -33.6557  -10.3257  -44.8582 H   0  0  0  0  0  0
  -32.0822   -7.9874  -45.7571 H   0  0  0  0  0  0
  -31.3083   -9.5694  -46.1105 H   0  0  0  0  0  0
  -32.6771   -8.8082  -47.9512 H   0  0  0  0  0  0
  -34.1114   -8.7309  -46.8726 H   0  0  0  0  0  0
  -33.3375  -10.3130  -47.2259 H   0  0  0  0  0  0
  -31.9352  -10.7295  -40.0793 H   0  0  0  0  0  0
  -33.7650  -10.2958  -37.8200 H   0  0  0  0  0  0
  -31.4209  -12.2679  -38.1956 H   0  0  0  0  0  0
  -32.6043  -12.3691  -36.8480 H   0  0  0  0  0  0
  -32.0749  -14.4961  -38.6368 H   0  0  0  0  0  0
  -33.6458  -14.7380  -39.6875 H   0  0  0  0  0  0
  -30.7849   -8.8990  -38.4918 H   0  0  0  0  0  0
  -30.3270   -8.5246  -35.5067 H   0  0  0  0  0  0
  -28.5008   -7.8596  -37.9026 H   0  0  0  0  0  0
  -28.0547   -7.6233  -36.1787 H   0  0  0  0  0  0
  -28.8432  -10.3365  -37.2922 H   0  0  0  0  0  0
  -27.1603   -9.7114  -37.3537 H   0  0  0  0  0  0
  -27.1876   -9.4616  -34.8979 H   0  0  0  0  0  0
  -28.8451  -10.1531  -34.8632 H   0  0  0  0  0  0
  -28.1013  -12.2650  -35.6573 H   0  0  0  0  0  0
  -26.5268  -11.5986  -36.2083 H   0  0  0  0  0  0
  -26.2842  -12.9302  -34.1978 H   0  0  0  0  0  0
  -27.4578  -11.8722  -33.3433 H   0  0  0  0  0  0
  -25.8834  -11.2056  -33.8943 H   0  0  0  0  0  0
  -31.6942   -7.0754  -38.2024 H   0  0  0  0  0  0
  -30.9026   -4.2328  -37.4802 H   0  0  0  0  0  0
  -31.0069   -5.1626  -39.8897 H   0  0  0  0  0  0
  -32.7741   -5.4038  -39.6766 H   0  0  0  0  0  0
  -33.1512   -3.0644  -39.7668 H   0  0  0  0  0  0
  -31.3851   -2.7415  -39.8257 H   0  0  0  0  0  0
  -32.2282   -2.6166  -42.0783 H   0  0  0  0  0  0
  -31.2948   -4.1451  -41.9400 H   0  0  0  0  0  0
  -33.2376   -5.4675  -41.9732 H   0  0  0  0  0  0
  -34.3067   -4.0708  -41.6089 H   0  0  0  0  0  0
  -34.4667   -4.7390  -43.9447 H   0  0  0  0  0  0
  -32.6992   -4.4889  -44.1453 H   0  0  0  0  0  0
  -33.7683   -3.0921  -43.7810 H   0  0  0  0  0  0
  -33.4909   -3.2462  -38.7189 H   0  0  0  0  0  0
  -34.7523   -3.3345  -37.2937 H   0  0  0  0  0  0
  1  2  1  0  0  0
  1 96  1  0  0  0
  1 97  1  0  0  0
  1 98  1  0  0  0
  2  3  1  0  0  0
  2  5  1  0  0  0
  2 99  1  0  0  0
  3  4  2  0  0  0
  3 12  1  0  0  0
  5  6  1  0  0  0
  5100  1  0  0  0
  5101  1  0  0  0
  6  7  1  0  0  0
  6102  1  0  0  0
  6103  1  0  0  0
  7  8  1  0  0  0
  7104  1  0  0  0
  7105  1  0  0  0
  8  9  1  0  0  0
  8106  1  0  0  0
  9 10  1  0  0  0
  9 11  2  0  0  0
 10107  1  0  0  0
 10108  1  0  0  0
 11109  1  0  0  0
 12 13  1  0  0  0
 12110  1  0  0  0
 13 14  1  0  0  0
 13 16  1  0  0  0
 13111  1  0  0  0
 14 15  2  0  0  0
 14 21  1  0  0  0
 16 17  1  0  0  0
 16112  1  0  0  0
 16113  1  0  0  0
 17 18  1  0  0  0
 17114  1  0  0  0
 17115  1  0  0  0
 18 19  1  0  0  0
 18116  1  0  0  0
 18117  1  0  0  0
 19 20  1  0  0  0
 19118  1  0  0  0
 19119  1  0  0  0
 20120  1  0  0  0
 20121  1  0  0  0
 20122  1  0  0  0
 21 22  1  0  0  0
 21123  1  0  0  0
 22 23  1  0  0  0
 22 25  1  0  0  0
 22124  1  0  0  0
 23 24  2  0  0  0
 23 29  1  0  0  0
 25 26  1  0  0  0
 25125  1  0  0  0
 25126  1  0  0  0
 26 27  1  0  0  0
 26 28  1  0  0  0
 26127  1  0  0  0
 27128  1  0  0  0
 27129  1  0  0  0
 27130  1  0  0  0
 28131  1  0  0  0
 28132  1  0  0  0
 28133  1  0  0  0
 29 30  1  0  0  0
 29 35  1  0  0  0
 30 31  1  0  0  0
 30 33  1  0  0  0
 30134  1  0  0  0
 31 32  2  0  0  0
 31 36  1  0  0  0
 33 34  1  0  0  0
 33135  1  0  0  0
 33136  1  0  0  0
 34 35  1  0  0  0
 34137  1  0  0  0
 34138  1  0  0  0
 35139  1  0  0  0
 35140  1  0  0  0
 36 37  1  0  0  0
 36141  1  0  0  0
 37 38  1  0  0  0
 37 40  1  0  0  0
 37142  1  0  0  0
 38 39  2  0  0  0
 38 45  1  0  0  0
 40 41  1  0  0  0
 40143  1  0  0  0
 40144  1  0  0  0
 41 42  1  0  0  0
 41145  1  0  0  0
 41146  1  0  0  0
 42 43  2  0  0  0
 42 44  1  0  0  0
 44147  1  0  0  0
 45 46  1  0  0  0
 45148  1  0  0  0
 46 47  1  0  0  0
 46 49  1  0  0  0
 46149  1  0  0  0
 47 48  2  0  0  0
 47 53  1  0  0  0
 49 50  1  0  0  0
 49 51  1  0  0  0
 49150  1  0  0  0
 50 52  1  0  0  0
 50151  1  0  0  0
 50152  1  0  0  0
 51153  1  0  0  0
 51154  1  0  0  0
 51155  1  0  0  0
 52156  1  0  0  0
 52157  1  0  0  0
 52158  1  0  0  0
 53 54  1  0  0  0
 53 59  1  0  0  0
 54 55  1  0  0  0
 54 57  1  0  0  0
 54159  1  0  0  0
 55 56  2  0  0  0
 55 60  1  0  0  0
 57 58  1  0  0  0
 57160  1  0  0  0
 57161  1  0  0  0
 58 59  1  0  0  0
 58162  1  0  0  0
 58163  1  0  0  0
 59164  1  0  0  0
 59165  1  0  0  0
 60 61  1  0  0  0
 60166  1  0  0  0
 61 62  1  0  0  0
 61 64  1  0  0  0
 61167  1  0  0  0
 62 63  2  0  0  0
 62 69  1  0  0  0
 64 65  1  0  0  0
 64168  1  0  0  0
 64169  1  0  0  0
 65 66  1  0  0  0
 65170  1  0  0  0
 65171  1  0  0  0
 66 67  1  0  0  0
 66172  1  0  0  0
 66173  1  0  0  0
 67 68  1  0  0  0
 67174  1  0  0  0
 67175  1  0  0  0
 68176  1  0  0  0
 68177  1  0  0  0
 68178  1  0  0  0
 69 70  1  0  0  0
 69179  1  0  0  0
 70 71  1  0  0  0
 70 73  1  0  0  0
 70180  1  0  0  0
 71 72  2  0  0  0
 71 77  1  0  0  0
 73 74  1  0  0  0
 73181  1  0  0  0
 73182  1  0  0  0
 74 75  2  0  0  0
 74 76  1  0  0  0
 76183  1  0  0  0
 76184  1  0  0  0
 77 78  1  0  0  0
 77185  1  0  0  0
 78 79  1  0  0  0
 78 81  1  0  0  0
 78186  1  0  0  0
 79 80  2  0  0  0
 79 86  1  0  0  0
 81 82  1  0  0  0
 81187  1  0  0  0
 81188  1  0  0  0
 82 83  1  0  0  0
 82189  1  0  0  0
 82190  1  0  0  0
 83 84  1  0  0  0
 83191  1  0  0  0
 83192  1  0  0  0
 84 85  1  0  0  0
 84193  1  0  0  0
 84194  1  0  0  0
 85195  1  0  0  0
 85196  1  0  0  0
 85197  1  0  0  0
 86 87  1  0  0  0
 86198  1  0  0  0
 87 88  1  0  0  0
 87 90  1  0  0  0
 87199  1  0  0  0
 88 89  2  0  0  0
 88 95  1  0  0  0
 90 91  1  0  0  0
 90200  1  0  0  0
 90201  1  0  0  0
 91 92  1  0  0  0
 91202  1  0  0  0
 91203  1  0  0  0
 92 93  1  0  0  0
 92204  1  0  0  0
 92205  1  0  0  0
 93 94  1  0  0  0
 93206  1  0  0  0
 93207  1  0  0  0
 94208  1  0  0  0
 94209  1  0  0  0
 94210  1  0  0  0
 95211  1  0  0  0
 95212  1  0  0  0
M  CHG  5   1   1  20   1  68   1  85   1  94   1
M  END
> <s_m_source_file>
../4z88_ligand.sdf

> <i_m_source_file_index>
1

> <s_epik_input>
W0hdL049QyhbTkgyXSlcW05IXVtDSDJdW0NIMl1bQ0gyXVtDQEhdKFtOSDMrXSlDKD1PKVtOSF1bQ0BASF0oW0NIMl1bQ0gyXVtDSDJdW0NIMl1bTkgzK10pQyg9TylbTkhdW0NAQEhdKFtDSDJdW0NIXShbQ0gzXSlbQ0gzXSlDKD1PKU4xW0NAQEhdKFtDSDJdW0NIMl1bQ0gyXTEpQyg9TylbTkhdW0NAQEhdKFtDSDJdW0NIMl1DKD1PKVtPSF0pQyg9TylbTkhdW0NAQEhdKFtDQEBIXShbQ0gzXSlbQ0gyXVtDSDNdKUMoPU8pTjJbQ0BASF0oW0NIMl1bQ0gyXVtDSDJdMilDKD1PKVtOSF1bQ0BASF0oW0NIMl1bQ0gyXVtDSDJdW0NIMl1bTkgzK10pQyg9TylbTkhdW0NAQEhdKFtDSDJdQyg9TylbTkgyXSlDKD1PKVtOSF1bQ0BASF0oW0NIMl1bQ0gyXVtDSDJdW0NIMl1bTkgzK10pQyg9TylbTkhdW0NASF0oQyg9TylbTkgyXSlbQ0gyXVtDSDJdW0NIMl1bQ0gyXVtOSDMrXQ==

> <s_epik_cmdline>
J2VwaWtfYXBwJywgJy1pbWFlJywgJ2xpZ2FuZF9wcm8ubWFlJywgJy1vbWFlJywgJ2xpZ2FuZF9wcmVwLm1hZScsICctbXMnLCAnMScsICctcGgnLCAnNycsICctcGh0JywgJzAuNScsICctbnQn

> <s_epik_pKa_notes>
Molecule size exceeds maximum supported for generating protonation states

> <s_epik_Chemistry_Notes>
This compound has an imine and may undergo hydrolysis.

$$$$
