4z89_ligand
                    3D
 Schrodinger Suite 2020-3.
190193  0  0  1  0            999 V2000
  -30.4290    8.7140    0.5320 N   0  3  0  0  0  0
  -29.9730    8.5440   -0.8350 C   0  0  0  0  0  0
  -28.7450    9.3810   -1.1240 C   0  0  0  0  0  0
  -27.6520    9.0690   -0.6550 O   0  0  0  0  0  0
  -28.9170   10.4400   -1.9070 N   0  0  0  0  0  0
  -27.7910   11.2870   -2.2710 C   0  0  2  0  0  0
  -27.5070   12.1790   -1.0830 C   0  0  0  0  0  0
  -28.4290   12.7490   -0.5030 O   0  0  0  0  0  0
  -28.1080   12.1260   -3.5050 C   0  0  0  0  0  0
  -26.9110   12.7600   -4.1690 C   0  0  0  0  0  0
  -27.3220   13.3410   -5.5090 C   0  0  0  0  0  0
  -26.1790   13.7850   -6.2950 N   0  0  0  0  0  0
  -25.4930   12.9980   -7.1140 C   0  0  0  0  0  0
  -25.8450   11.7290   -7.2760 N   0  0  0  0  0  0
  -24.4650   13.4890   -7.7830 N   0  0  0  0  0  0
  -26.2410   12.3190   -0.7180 N   0  0  0  0  0  0
  -25.9190   13.0650    0.4880 C   0  0  2  0  0  0
  -25.3880   14.4700    0.2390 C   0  0  0  0  0  0
  -24.6780   14.7270   -0.7320 O   0  0  0  0  0  0
  -24.9340   12.2710    1.3460 C   0  0  0  0  0  0
  -25.4950   10.9170    1.7690 C   0  0  0  0  0  0
  -26.7650   11.1380    2.5900 C   0  0  0  0  0  0
  -27.3800    9.9050    3.0790 N   0  0  0  0  0  0
  -28.6040    9.8370    3.5950 C   0  0  0  0  0  0
  -29.3490   10.9310    3.6730 N   0  0  0  0  0  0
  -29.0850    8.6750    4.0200 N   0  0  0  0  0  0
  -25.7600   15.3710    1.1420 N   0  0  0  0  0  0
  -25.3340   16.7630    1.1010 C   0  0  2  0  0  0
  -23.9490   16.9200    1.7150 C   0  0  0  0  0  0
  -23.5920   16.1900    2.6450 O   0  0  0  0  0  0
  -26.3300   17.6530    1.8540 C   0  0  0  0  0  0
  -27.6410   18.1110    1.2070 C   0  0  0  0  0  0
  -28.5130   18.8200    2.2190 C   0  0  0  0  0  0
  -27.3610   19.0510    0.0450 C   0  0  0  0  0  0
  -23.1410   17.8420    1.1710 N   0  0  0  0  0  0
  -21.8870   18.1570    1.8530 C   0  0  2  0  0  0
  -22.2230   19.0050    3.0740 C   0  0  0  0  0  0
  -23.3060   19.5890    3.1190 O   0  0  0  0  0  0
  -21.1060   18.9500    0.8080 C   0  0  0  0  0  0
  -22.1840   19.6190    0.0030 C   0  0  0  0  0  0
  -23.2930   18.6030   -0.0810 C   0  0  0  0  0  0
  -21.3270   19.0580    4.0650 N   0  0  0  0  0  0
  -21.5450   19.9140    5.2380 C   0  0  2  0  0  0
  -21.6150   21.4080    4.8960 C   0  0  0  0  0  0
  -20.9070   21.8610    3.9890 O   0  0  0  0  0  0
  -20.3270   19.6150    6.1240 C   0  0  0  0  0  0
  -19.2950   19.0650    5.1920 C   0  0  0  0  0  0
  -20.0630   18.3060    4.1540 C   0  0  0  0  0  0
  -22.4750   22.1520    5.5930 N   0  0  0  0  0  0
  -22.4950   23.6080    5.4740 C   0  0  2  0  0  0
  -21.3340   24.1400    6.3210 C   0  0  0  0  0  0
  -21.2290   23.8110    7.5050 O   0  0  0  0  0  0
  -23.8410   24.2160    5.9290 C   0  0  2  0  0  0
  -24.9270   23.4400    5.4030 O   0  0  0  0  0  0
  -23.9710   25.6560    5.4390 C   0  0  0  0  0  0
  -20.4520   24.9560    5.7140 N   0  0  0  0  0  0
  -19.1510   25.3140    6.3070 C   0  0  2  0  0  0
  -19.1450   26.2730    7.5070 C   0  0  0  0  0  0
  -19.9470   26.1500    8.4330 O   0  0  0  0  0  0
  -18.4010   25.9730    5.1350 C   0  0  0  0  0  0
  -19.1590   25.6040    3.9090 C   0  0  0  0  0  0
  -20.5780   25.4550    4.3350 C   0  0  0  0  0  0
  -18.2030   27.2160    7.4720 N   0  0  0  0  0  0
  -18.0000   28.1960    8.5400 C   0  0  2  0  0  0
  -18.7650   29.5230    8.4570 C   0  0  0  0  0  0
  -19.6580   29.7780    9.2680 O   0  0  0  0  0  0
  -16.5120   28.5250    8.6220 C   0  0  0  0  0  0
  -16.1630   29.4830    7.6380 O   0  0  0  0  0  0
  -18.4430   30.3430    7.4570 N   0  0  0  0  0  0
  -18.9800   31.7020    7.3730 C   0  0  2  0  0  0
  -19.0280   32.2170    5.9260 C   0  0  0  0  0  0
  -18.1640   31.8860    5.1170 O   0  0  0  0  0  0
  -18.1360   32.6310    8.2660 C   0  0  0  0  0  0
  -18.1160   34.1020    7.8880 C   0  0  0  0  0  0
  -17.4300   34.9360    8.9690 C   0  0  0  0  0  0
  -17.6340   36.4260    8.7250 C   0  0  0  0  0  0
  -17.5210   37.2420    9.9620 N   0  3  0  0  0  0
  -20.0640   33.0180    5.6030 N   0  0  0  0  0  0
  -20.5450   33.3060    4.2490 C   0  0  2  0  0  0
  -19.5400   33.7070    3.1760 C   0  0  0  0  0  0
  -19.5080   33.0400    2.1430 O   0  0  0  0  0  0
  -21.4820   34.4960    4.4890 C   0  0  0  0  0  0
  -21.9550   34.3390    5.9350 C   0  0  0  0  0  0
  -21.1870   33.1810    6.5410 C   0  0  0  0  0  0
  -18.7530   34.7550    3.4030 N   0  0  0  0  0  0
  -17.9020   35.3090    2.3500 C   0  0  2  0  0  0
  -16.4240   35.2920    2.7270 C   0  0  0  0  0  0
  -15.5650   35.1020    1.8690 O   0  0  0  0  0  0
  -18.3300   36.7410    2.0140 C   0  0  0  0  0  0
  -17.8280   37.1470    0.7500 O   0  0  0  0  0  0
  -16.0770   35.4680    3.8930 O   0  0  0  0  0  0
  -31.3199    8.0914    0.7014 H   0  0  0  0  0  0
  -30.6815    9.7705    0.7056 H   0  0  0  0  0  0
  -29.6313    8.4090    1.2252 H   0  0  0  0  0  0
  -29.7205    7.4875   -1.0086 H   0  0  0  0  0  0
  -30.7707    8.8490   -1.5283 H   0  0  0  0  0  0
  -29.9246   10.6738   -2.2811 H   0  0  0  0  0  0
  -26.9365   10.6352   -2.5055 H   0  0  0  0  0  0
  -28.5913   11.4935   -4.2641 H   0  0  0  0  0  0
  -28.7853   12.9467   -3.2263 H   0  0  0  0  0  0
  -26.5180   13.5624   -3.5273 H   0  0  0  0  0  0
  -26.1317   11.9992   -4.3236 H   0  0  0  0  0  0
  -27.8585   12.5770   -6.0909 H   0  0  0  0  0  0
  -27.9801   14.2074   -5.3467 H   0  0  0  0  0  0
  -25.8382   14.8288   -6.2289 H   0  0  0  0  0  0
  -26.7009   11.3202   -6.7190 H   0  0  0  0  0  0
  -25.2809   11.0857   -7.9673 H   0  0  0  0  0  0
  -24.1732   14.5411   -7.6487 H   0  0  0  0  0  0
  -25.4357   11.8748   -1.3214 H   0  0  0  0  0  0
  -26.8979   13.1757    0.9774 H   0  0  0  0  0  0
  -24.0106   12.0937    0.7751 H   0  0  0  0  0  0
  -24.6983   12.8414    2.2565 H   0  0  0  0  0  0
  -25.7309   10.3222    0.8743 H   0  0  0  0  0  0
  -24.7487   10.3846    2.3769 H   0  0  0  0  0  0
  -26.5299   11.7544    3.4702 H   0  0  0  0  0  0
  -27.5161   11.6522    1.9724 H   0  0  0  0  0  0
  -26.8241    8.9570    3.0322 H   0  0  0  0  0  0
  -28.9506   11.8940    3.3209 H   0  0  0  0  0  0
  -28.4671    7.7673    3.9554 H   0  0  0  0  0  0
  -30.1015    8.6199    4.4368 H   0  0  0  0  0  0
  -26.4216   15.0218    1.9484 H   0  0  0  0  0  0
  -25.3059   17.0247    0.0330 H   0  0  0  0  0  0
  -26.6668   17.1369    2.7652 H   0  0  0  0  0  0
  -25.8414   18.5996    2.1281 H   0  0  0  0  0  0
  -28.1764   17.2242    0.8369 H   0  0  0  0  0  0
  -28.7191   18.1447    3.0625 H   0  0  0  0  0  0
  -29.4609   19.1138    1.7444 H   0  0  0  0  0  0
  -27.9932   19.7172    2.5862 H   0  0  0  0  0  0
  -26.7268   18.5407   -0.6948 H   0  0  0  0  0  0
  -26.8430   19.9479    0.4155 H   0  0  0  0  0  0
  -28.3106   19.3444   -0.4263 H   0  0  0  0  0  0
  -21.3423   17.2641    2.1937 H   0  0  0  0  0  0
  -20.4487   19.6734    1.3126 H   0  0  0  0  0  0
  -20.4975   18.2608    0.2041 H   0  0  0  0  0  0
  -22.5102   20.5353    0.5169 H   0  0  0  0  0  0
  -21.7922   19.8764   -0.9921 H   0  0  0  0  0  0
  -23.1800   17.9238   -0.9389 H   0  0  0  0  0  0
  -24.2900   19.0669   -0.1094 H   0  0  0  0  0  0
  -22.5197   19.6721    5.6868 H   0  0  0  0  0  0
  -19.9860   20.5440    6.6042 H   0  0  0  0  0  0
  -20.6064   18.8839    6.8969 H   0  0  0  0  0  0
  -18.7249   19.8934    4.7462 H   0  0  0  0  0  0
  -18.6113   18.4073    5.7488 H   0  0  0  0  0  0
  -20.2735   17.2695    4.4563 H   0  0  0  0  0  0
  -19.5653   18.3079    3.1730 H   0  0  0  0  0  0
  -23.1797   21.6457    6.2690 H   0  0  0  0  0  0
  -22.3711   23.8453    4.4071 H   0  0  0  0  0  0
  -23.9378   24.1743    7.0239 H   0  0  0  0  0  0
  -25.0070   22.3702    5.6463 H   0  0  0  0  0  0
  -23.1405   26.2559    5.8394 H   0  0  0  0  0  0
  -24.9270   26.0761    5.7849 H   0  0  0  0  0  0
  -23.9392   25.6735    4.3396 H   0  0  0  0  0  0
  -18.7472   24.3804    6.7256 H   0  0  0  0  0  0
  -18.3817   27.0634    5.2788 H   0  0  0  0  0  0
  -17.3706   25.5898    5.0972 H   0  0  0  0  0  0
  -19.0506   26.3999    3.1575 H   0  0  0  0  0  0
  -18.7640   24.6607    3.5037 H   0  0  0  0  0  0
  -21.1290   24.7212    3.7285 H   0  0  0  0  0  0
  -21.1231   26.4105    4.3391 H   0  0  0  0  0  0
  -17.5595   27.2333    6.5801 H   0  0  0  0  0  0
  -18.4183   27.6522    9.3999 H   0  0  0  0  0  0
  -16.2810   28.9331    9.6171 H   0  0  0  0  0  0
  -15.9244   27.6101    8.4555 H   0  0  0  0  0  0
  -15.1238   29.8344    7.5567 H   0  0  0  0  0  0
  -17.7546   29.9747    6.6821 H   0  0  0  0  0  0
  -20.0155   31.6360    7.7381 H   0  0  0  0  0  0
  -18.5152   32.5916    9.2978 H   0  0  0  0  0  0
  -17.0864   32.3024    8.2483 H   0  0  0  0  0  0
  -17.5681   34.2303    6.9428 H   0  0  0  0  0  0
  -19.1478   34.4632    7.7656 H   0  0  0  0  0  0
  -17.8514   34.6798    9.9523 H   0  0  0  0  0  0
  -16.3507   34.7238    8.9661 H   0  0  0  0  0  0
  -16.8746   36.7889    8.0168 H   0  0  0  0  0  0
  -18.6368   36.5950    8.3057 H   0  0  0  0  0  0
  -17.6779   38.3028    9.7171 H   0  0  0  0  0  0
  -16.5196   37.1105   10.3978 H   0  0  0  0  0  0
  -18.2819   36.9166   10.6867 H   0  0  0  0  0  0
  -20.9458   32.3548    3.8687 H   0  0  0  0  0  0
  -20.9276   35.4346    4.3420 H   0  0  0  0  0  0
  -22.3212   34.4509    3.7793 H   0  0  0  0  0  0
  -21.7529   35.2671    6.4897 H   0  0  0  0  0  0
  -23.0354   34.1326    5.9470 H   0  0  0  0  0  0
  -21.7737   32.2511    6.5757 H   0  0  0  0  0  0
  -20.7968   33.4060    7.5446 H   0  0  0  0  0  0
  -18.7503   35.2058    4.4064 H   0  0  0  0  0  0
  -18.0577   34.6355    1.4943 H   0  0  0  0  0  0
  -19.4282   36.7991    1.9891 H   0  0  0  0  0  0
  -17.9438   37.4286    2.7808 H   0  0  0  0  0  0
  -18.0509   38.1539    0.3673 H   0  0  0  0  0  0
  -15.0093   35.4543    4.1571 H   0  0  0  0  0  0
  1  2  1  0  0  0
  1 92  1  0  0  0
  1 93  1  0  0  0
  1 94  1  0  0  0
  2  3  1  0  0  0
  2 95  1  0  0  0
  2 96  1  0  0  0
  3  4  2  0  0  0
  3  5  1  0  0  0
  5  6  1  0  0  0
  5 97  1  0  0  0
  6  7  1  0  0  0
  6  9  1  0  0  0
  6 98  1  0  0  0
  7  8  2  0  0  0
  7 16  1  0  0  0
  9 10  1  0  0  0
  9 99  1  0  0  0
  9100  1  0  0  0
 10 11  1  0  0  0
 10101  1  0  0  0
 10102  1  0  0  0
 11 12  1  0  0  0
 11103  1  0  0  0
 11104  1  0  0  0
 12 13  1  0  0  0
 12105  1  0  0  0
 13 14  1  0  0  0
 13 15  2  0  0  0
 14106  1  0  0  0
 14107  1  0  0  0
 15108  1  0  0  0
 16 17  1  0  0  0
 16109  1  0  0  0
 17 18  1  0  0  0
 17 20  1  0  0  0
 17110  1  0  0  0
 18 19  2  0  0  0
 18 27  1  0  0  0
 20 21  1  0  0  0
 20111  1  0  0  0
 20112  1  0  0  0
 21 22  1  0  0  0
 21113  1  0  0  0
 21114  1  0  0  0
 22 23  1  0  0  0
 22115  1  0  0  0
 22116  1  0  0  0
 23 24  1  0  0  0
 23117  1  0  0  0
 24 25  2  0  0  0
 24 26  1  0  0  0
 25118  1  0  0  0
 26119  1  0  0  0
 26120  1  0  0  0
 27 28  1  0  0  0
 27121  1  0  0  0
 28 29  1  0  0  0
 28 31  1  0  0  0
 28122  1  0  0  0
 29 30  2  0  0  0
 29 35  1  0  0  0
 31 32  1  0  0  0
 31123  1  0  0  0
 31124  1  0  0  0
 32 33  1  0  0  0
 32 34  1  0  0  0
 32125  1  0  0  0
 33126  1  0  0  0
 33127  1  0  0  0
 33128  1  0  0  0
 34129  1  0  0  0
 34130  1  0  0  0
 34131  1  0  0  0
 35 36  1  0  0  0
 35 41  1  0  0  0
 36 37  1  0  0  0
 36 39  1  0  0  0
 36132  1  0  0  0
 37 38  2  0  0  0
 37 42  1  0  0  0
 39 40  1  0  0  0
 39133  1  0  0  0
 39134  1  0  0  0
 40 41  1  0  0  0
 40135  1  0  0  0
 40136  1  0  0  0
 41137  1  0  0  0
 41138  1  0  0  0
 42 43  1  0  0  0
 42 48  1  0  0  0
 43 44  1  0  0  0
 43 46  1  0  0  0
 43139  1  0  0  0
 44 45  2  0  0  0
 44 49  1  0  0  0
 46 47  1  0  0  0
 46140  1  0  0  0
 46141  1  0  0  0
 47 48  1  0  0  0
 47142  1  0  0  0
 47143  1  0  0  0
 48144  1  0  0  0
 48145  1  0  0  0
 49 50  1  0  0  0
 49146  1  0  0  0
 50 51  1  0  0  0
 50 53  1  0  0  0
 50147  1  0  0  0
 51 52  2  0  0  0
 51 56  1  0  0  0
 53 54  1  0  0  0
 53 55  1  0  0  0
 53148  1  0  0  0
 54149  1  0  0  0
 55150  1  0  0  0
 55151  1  0  0  0
 55152  1  0  0  0
 56 57  1  0  0  0
 56 62  1  0  0  0
 57 58  1  0  0  0
 57 60  1  0  0  0
 57153  1  0  0  0
 58 59  2  0  0  0
 58 63  1  0  0  0
 60 61  1  0  0  0
 60154  1  0  0  0
 60155  1  0  0  0
 61 62  1  0  0  0
 61156  1  0  0  0
 61157  1  0  0  0
 62158  1  0  0  0
 62159  1  0  0  0
 63 64  1  0  0  0
 63160  1  0  0  0
 64 65  1  0  0  0
 64 67  1  0  0  0
 64161  1  0  0  0
 65 66  2  0  0  0
 65 69  1  0  0  0
 67 68  1  0  0  0
 67162  1  0  0  0
 67163  1  0  0  0
 68164  1  0  0  0
 69 70  1  0  0  0
 69165  1  0  0  0
 70 71  1  0  0  0
 70 73  1  0  0  0
 70166  1  0  0  0
 71 72  2  0  0  0
 71 78  1  0  0  0
 73 74  1  0  0  0
 73167  1  0  0  0
 73168  1  0  0  0
 74 75  1  0  0  0
 74169  1  0  0  0
 74170  1  0  0  0
 75 76  1  0  0  0
 75171  1  0  0  0
 75172  1  0  0  0
 76 77  1  0  0  0
 76173  1  0  0  0
 76174  1  0  0  0
 77175  1  0  0  0
 77176  1  0  0  0
 77177  1  0  0  0
 78 79  1  0  0  0
 78 84  1  0  0  0
 79 80  1  0  0  0
 79 82  1  0  0  0
 79178  1  0  0  0
 80 81  2  0  0  0
 80 85  1  0  0  0
 82 83  1  0  0  0
 82179  1  0  0  0
 82180  1  0  0  0
 83 84  1  0  0  0
 83181  1  0  0  0
 83182  1  0  0  0
 84183  1  0  0  0
 84184  1  0  0  0
 85 86  1  0  0  0
 85185  1  0  0  0
 86 87  1  0  0  0
 86 89  1  0  0  0
 86186  1  0  0  0
 87 88  2  0  0  0
 87 91  1  0  0  0
 89 90  1  0  0  0
 89187  1  0  0  0
 89188  1  0  0  0
 90189  1  0  0  0
 91190  1  0  0  0
M  CHG  2   1   1  77   1
M  END
> <s_m_source_file>
../4z89_ligand.sdf

> <i_m_source_file_index>
1

> <s_epik_input>
W0hdL049QyhbTkgyXSlcW05IXVtDSDJdW0NIMl1bQ0gyXVtDQEhdKFtOSF1DKD1PKVtDSDJdW05IMytdKUMoPU8pW05IXVtDQEBIXShbQ0gyXVtDSDJdW0NIMl1bTkhdL0MoPU5cW0hdKVtOSDJdKUMoPU8pW05IXVtDQEBIXShbQ0gyXVtDSF0oW0NIM10pW0NIM10pQyg9TylOMVtDQEBIXShbQ0gyXVtDSDJdW0NIMl0xKUMoPU8pTjJbQ0BASF0oW0NIMl1bQ0gyXVtDSDJdMilDKD1PKVtOSF1bQ0BASF0oW0NASF0oW09IXSlbQ0gzXSlDKD1PKU4zW0NAQEhdKFtDSDJdW0NIMl1bQ0gyXTMpQyg9TylbTkhdW0NAQEhdKFtDSDJdW09IXSlDKD1PKVtOSF1bQ0BASF0oW0NIMl1bQ0gyXVtDSDJdW0NIMl1bTkgzK10pQyg9TylONFtDQEBIXShbQ0gyXVtDSDJdW0NIMl00KUMoPU8pW05IXVtDQEhdKEMoPU8pW09IXSlbQ0gyXVtPSF0=

> <s_epik_cmdline>
J2VwaWtfYXBwJywgJy1pbWFlJywgJ2xpZ2FuZF9wcm8ubWFlJywgJy1vbWFlJywgJ2xpZ2FuZF9wcmVwLm1hZScsICctbXMnLCAnMScsICctcGgnLCAnNycsICctcGh0JywgJzAuNScsICctbnQn

> <s_epik_pKa_notes>
Molecule size exceeds maximum supported for generating protonation states

> <s_epik_Chemistry_Notes>
This compound has an imine and may undergo hydrolysis.

$$$$
