4z8a_ligand
                    3D
 Schrodinger Suite 2020-3.
247250  0  0  1  0            999 V2000
   22.1990   26.4110   28.8380 C   0  0  0  0  0  0
   21.3480   27.2660   28.6200 O   0  0  0  0  0  0
   23.2580   26.5890   29.8810 C   0  0  0  0  0  0
   22.3830   25.3620   28.0470 N   0  0  0  0  0  0
   21.4800   24.9800   26.9640 C   0  0  2  0  0  0
   20.7680   23.6740   27.3030 C   0  0  0  0  0  0
   21.4240   22.6630   27.5170 O   0  0  0  0  0  0
   22.2380   24.7880   25.6460 C   0  0  2  0  0  0
   23.0380   26.0470   25.2850 C   0  0  0  0  0  0
   21.2760   24.4020   24.5410 C   0  0  0  0  0  0
   23.8160   25.9030   23.9770 C   0  0  0  0  0  0
   19.4400   23.7000   27.3530 N   0  0  0  0  0  0
   18.6780   22.4880   27.6380 C   0  0  0  0  0  0
   18.1560   21.8440   26.3740 C   0  0  0  0  0  0
   18.2150   22.4440   25.2950 O   0  0  0  0  0  0
   17.6780   20.6030   26.5030 N   0  0  0  0  0  0
   17.0580   19.8920   25.3990 C   0  0  2  0  0  0
   15.5490   20.0480   25.4780 C   0  0  0  0  0  0
   14.9850   20.2000   26.5610 O   0  0  0  0  0  0
   17.4320   18.4090   25.4220 C   0  0  0  0  0  0
   18.9370   18.1810   25.1420 C   0  0  0  0  0  0
   19.3740   16.6920   25.3100 C   0  0  0  0  0  0
   18.3830   15.7570   24.7650 N   0  0  0  0  0  0
   18.2720   15.4440   23.4780 C   0  0  0  0  0  0
   19.1100   15.9760   22.5890 N   0  0  0  0  0  0
   17.3020   14.6290   23.0700 N   0  0  0  0  0  0
   14.9120   20.0090   24.3280 N   0  0  0  0  0  0
   13.4580   20.0350   24.2820 C   0  0  2  0  0  0
   12.9200   19.1860   23.1500 C   0  0  0  0  0  0
   13.6380   18.7820   22.2560 O   0  0  0  0  0  0
   12.9770   21.4850   24.1330 C   0  0  0  0  0  0
   13.2570   22.1020   22.7710 C   0  0  0  0  0  0
   12.7550   23.5410   22.7470 C   0  0  0  0  0  0
   13.0850   24.2870   21.5320 N   0  0  0  0  0  0
   12.2810   24.3950   20.4740 C   0  0  0  0  0  0
   11.1110   23.7610   20.4370 N   0  0  0  0  0  0
   12.6450   25.1350   19.4400 N   0  0  0  0  0  0
   11.6200   18.9130   23.1760 N   0  0  0  0  0  0
   11.0160   18.1720   22.0860 C   0  0  2  0  0  0
   10.9250   18.9850   20.8050 C   0  0  0  0  0  0
   10.7270   20.2010   20.8520 O   0  0  0  0  0  0
    9.6060   17.7210   22.4950 C   0  0  0  0  0  0
    9.5530   16.5420   23.4710 C   0  0  0  0  0  0
    8.1160   16.3270   23.9390 C   0  0  0  0  0  0
   10.1080   15.2700   22.8390 C   0  0  0  0  0  0
   11.0030   18.3180   19.6510 N   0  0  0  0  0  0
   10.6050   19.0230   18.4240 C   0  0  2  0  0  0
    9.1240   19.3460   18.4320 C   0  0  0  0  0  0
    8.3970   18.7660   19.2270 O   0  0  0  0  0  0
   10.9520   18.0300   17.3190 C   0  0  0  0  0  0
   10.9110   16.6960   17.9890 C   0  0  0  0  0  0
   11.2940   16.8900   19.4190 C   0  0  0  0  0  0
    8.6840   20.3050   17.6020 N   0  0  0  0  0  0
    7.2370   20.5230   17.4700 C   0  0  2  0  0  0
    6.5120   19.2480   17.0450 C   0  0  0  0  0  0
    7.0070   18.4670   16.2410 O   0  0  0  0  0  0
    7.1100   21.6100   16.3890 C   0  0  0  0  0  0
    8.4500   21.8370   15.8500 C   0  0  0  0  0  0
    9.4790   21.2030   16.7620 C   0  0  0  0  0  0
    5.3380   19.0490   17.6260 N   0  0  0  0  0  0
    4.5250   17.8680   17.3590 C   0  0  2  0  0  0
    3.9310   17.9590   15.9660 C   0  0  0  0  0  0
    3.3830   18.9990   15.5920 O   0  0  0  0  0  0
    3.4050   17.7490   18.3840 C   0  0  2  0  0  0
    3.9600   17.7530   19.7020 O   0  0  0  0  0  0
    2.5820   16.4780   18.1550 C   0  0  0  0  0  0
    4.0280   16.8770   15.1840 N   0  0  0  0  0  0
    3.3940   16.9100   13.8680 C   0  0  2  0  0  0
    1.8960   17.1520   14.0070 C   0  0  0  0  0  0
    1.2810   16.7270   14.9850 O   0  0  0  0  0  0
    3.6970   15.5210   13.2940 C   0  0  0  0  0  0
    4.9940   15.1530   13.9740 C   0  0  0  0  0  0
    4.7880   15.6280   15.3870 C   0  0  0  0  0  0
    1.3310   17.8730   13.0560 N   0  0  0  0  0  0
   -0.0960   18.2120   13.1380 C   0  0  2  0  0  0
   -0.9450   17.4750   12.0910 C   0  0  0  0  0  0
   -2.1840   17.4000   12.2240 O   0  0  0  0  0  0
   -0.2710   19.7240   12.9890 C   0  0  0  0  0  0
    0.0630   20.1200   11.6830 O   0  0  0  0  0  0
   -0.3020   16.9470   11.0510 N   0  0  0  0  0  0
   -1.0120   16.1770   10.0270 C   0  0  2  0  0  0
   -1.2740   14.7640   10.5210 C   0  0  0  0  0  0
   -0.4480   14.2220   11.2550 O   0  0  0  0  0  0
   -0.2000   16.0970    8.7270 C   0  0  0  0  0  0
    0.0820   17.4180    8.0380 C   0  0  0  0  0  0
    0.6710   17.1850    6.6510 C   0  0  0  0  0  0
    1.1840   18.4760    6.0230 C   0  0  0  0  0  0
    1.7160   18.2540    4.6420 N   0  3  0  0  0  0
   -2.3880   14.1470   10.0860 N   0  0  0  0  0  0
   -2.6240   12.7330   10.4210 C   0  0  2  0  0  0
   -1.4470   11.8480    9.9780 C   0  0  0  0  0  0
   -0.8180   12.0950    8.9450 O   0  0  0  0  0  0
   -3.8940   12.3920    9.6340 C   0  0  0  0  0  0
   -4.6080   13.7190    9.4780 C   0  0  0  0  0  0
   -3.5060   14.7210    9.3090 C   0  0  0  0  0  0
   -1.1580   10.8230   10.7640 N   0  0  0  0  0  0
   -0.0730    9.9060   10.4090 C   0  0  2  0  0  0
   -0.3380    9.1730    9.0960 C   0  0  0  0  0  0
   -1.4450    8.7020    8.8700 O   0  0  0  0  0  0
    0.1160    8.8820   11.5220 C   0  0  0  0  0  0
    1.0460    7.9030   11.1180 O   0  0  0  0  0  0
    0.6850    9.0130    8.2570 N   0  0  0  0  0  0
    0.4930    8.2780    7.0190 C   0  0  2  0  0  0
    0.4180    6.7630    7.2590 C   0  0  0  0  0  0
    0.1150    6.0040    6.3400 O   0  0  0  0  0  0
    1.6100    8.5720    6.0060 C   0  0  2  0  0  0
    2.8480    8.1060    6.5420 O   0  0  0  0  0  0
    1.7090   10.0650    5.7130 C   0  0  0  0  0  0
    0.6690    6.3250    8.4940 N   0  0  0  0  0  0
    0.5220    4.9080    8.8300 C   0  0  2  0  0  0
   -0.9280    4.4560    8.7340 C   0  0  0  0  0  0
   -1.2120    3.3260    8.3200 O   0  0  0  0  0  0
    1.0260    4.6300   10.2350 C   0  0  0  0  0  0
    1.0740    3.1370   10.6070 C   0  0  0  0  0  0
    2.0650    2.4020    9.7150 C   0  0  0  0  0  0
    1.4510    3.0220   12.0540 C   0  0  0  0  0  0
   -1.8370    5.3360    9.1440 N   0  0  0  0  0  0
   23.0285   27.4766   30.4888 H   0  0  0  0  0  0
   24.2348   26.7214   29.3928 H   0  0  0  0  0  0
   23.2888   25.6997   30.5277 H   0  0  0  0  0  0
   23.2840   24.7640   28.2486 H   0  0  0  0  0  0
   20.7692   25.8159   26.8861 H   0  0  0  0  0  0
   22.9531   23.9601   25.7610 H   0  0  0  0  0  0
   22.3508   26.8987   25.1739 H   0  0  0  0  0  0
   23.7629   26.2625   26.0838 H   0  0  0  0  0  0
   20.7227   23.4982   24.8358 H   0  0  0  0  0  0
   21.8394   24.2022   23.6176 H   0  0  0  0  0  0
   20.5675   25.2254   24.3674 H   0  0  0  0  0  0
   24.3664   26.8334   23.7735 H   0  0  0  0  0  0
   23.1147   25.7042   23.1532 H   0  0  0  0  0  0
   24.5267   25.0678   24.0632 H   0  0  0  0  0  0
   18.9155   24.6506   27.1763 H   0  0  0  0  0  0
   19.3232   21.7622   28.1547 H   0  0  0  0  0  0
   17.8195   22.7369   28.2791 H   0  0  0  0  0  0
   17.7667   20.1204   27.4875 H   0  0  0  0  0  0
   17.4490   20.3597   24.4834 H   0  0  0  0  0  0
   17.2011   17.9879   26.4116 H   0  0  0  0  0  0
   16.8565   17.8737   24.6524 H   0  0  0  0  0  0
   19.1672   18.4806   24.1089 H   0  0  0  0  0  0
   19.5354   18.7841   25.8407 H   0  0  0  0  0  0
   20.3248   16.5272   24.7821 H   0  0  0  0  0  0
   19.5041   16.4664   26.3787 H   0  0  0  0  0  0
   17.6663   15.2619   25.4367 H   0  0  0  0  0  0
   19.9123   16.6498   22.9241 H   0  0  0  0  0  0
   18.9995   15.7414   21.5200 H   0  0  0  0  0  0
   16.6092   14.1888   23.8023 H   0  0  0  0  0  0
   15.4910   19.9562   23.3942 H   0  0  0  0  0  0
   13.1234   19.5927   25.2320 H   0  0  0  0  0  0
   11.8888   21.5280   24.2875 H   0  0  0  0  0  0
   13.4788   22.1165   24.8810 H   0  0  0  0  0  0
   14.3400   22.0900   22.5787 H   0  0  0  0  0  0
   12.7399   21.5220   21.9924 H   0  0  0  0  0  0
   11.6585   23.5483   22.8350 H   0  0  0  0  0  0
   13.1941   24.0966   23.5887 H   0  0  0  0  0  0
   14.0516   24.8057   21.4506 H   0  0  0  0  0  0
   10.7939   23.1417   21.2890 H   0  0  0  0  0  0
   10.4614   23.8565   19.5545 H   0  0  0  0  0  0
   13.6087   25.6652   19.4552 H   0  0  0  0  0  0
   11.0022   19.2479   24.0222 H   0  0  0  0  0  0
   11.7020   17.3284   21.9193 H   0  0  0  0  0  0
    9.0818   18.5551   22.9845 H   0  0  0  0  0  0
    9.0463   17.4108   21.6003 H   0  0  0  0  0  0
   10.1850   16.7768   24.3401 H   0  0  0  0  0  0
    7.7349   17.2546   24.3910 H   0  0  0  0  0  0
    8.0902   15.5184   24.6843 H   0  0  0  0  0  0
    7.4874   16.0530   23.0789 H   0  0  0  0  0  0
   11.1425   15.4458   22.5091 H   0  0  0  0  0  0
    9.4895   14.9907   21.9733 H   0  0  0  0  0  0
   10.0923   14.4561   23.5788 H   0  0  0  0  0  0
   11.1223   19.9895   18.3326 H   0  0  0  0  0  0
   10.2095   18.1063   16.5110 H   0  0  0  0  0  0
   11.9517   18.2588   16.9211 H   0  0  0  0  0  0
    9.8943   16.2819   17.9195 H   0  0  0  0  0  0
   11.6189   16.0150   17.4938 H   0  0  0  0  0  0
   12.3622   16.6994   19.5998 H   0  0  0  0  0  0
   10.6909   16.2768   20.1048 H   0  0  0  0  0  0
    6.8151   20.8109   18.4442 H   0  0  0  0  0  0
    6.4273   21.2636   15.5991 H   0  0  0  0  0  0
    6.7117   22.5309   16.8400 H   0  0  0  0  0  0
    8.5233   21.3879   14.8485 H   0  0  0  0  0  0
    8.6394   22.9184   15.7816 H   0  0  0  0  0  0
    9.9887   21.9430   17.3964 H   0  0  0  0  0  0
   10.2274   20.6188   16.2065 H   0  0  0  0  0  0
    4.9818   19.8139   18.3318 H   0  0  0  0  0  0
    5.2007   17.0033   17.4347 H   0  0  0  0  0  0
    2.7501   18.6314   18.3348 H   0  0  0  0  0  0
    4.5821   18.5971   20.0342 H   0  0  0  0  0  0
    2.1629   16.4908   17.1381 H   0  0  0  0  0  0
    1.7634   16.4342   18.8885 H   0  0  0  0  0  0
    3.2286   15.5961   18.2740 H   0  0  0  0  0  0
    3.7856   17.7337   13.2530 H   0  0  0  0  0  0
    2.8761   14.8333   13.5455 H   0  0  0  0  0  0
    3.7958   15.5897   12.2006 H   0  0  0  0  0  0
    5.1441   14.0650   13.9131 H   0  0  0  0  0  0
    5.8286   15.6667   13.4745 H   0  0  0  0  0  0
    5.7306   15.8528   15.9076 H   0  0  0  0  0  0
    4.1917   14.9303   15.9933 H   0  0  0  0  0  0
    1.9305   18.2199   12.2014 H   0  0  0  0  0  0
   -0.4106   17.8717   14.1356 H   0  0  0  0  0  0
   -1.3178   19.9937   13.1924 H   0  0  0  0  0  0
    0.3863   20.2414   13.7033 H   0  0  0  0  0  0
   -0.0047   21.1795   11.3953 H   0  0  0  0  0  0
    0.7844   17.0990   10.9702 H   0  0  0  0  0  0
   -1.9555   16.7184    9.8638 H   0  0  0  0  0  0
    0.7811   15.6450    8.9347 H   0  0  0  0  0  0
   -0.7404   15.4795    7.9945 H   0  0  0  0  0  0
   -0.8546   17.9859    7.9365 H   0  0  0  0  0  0
    0.7995   17.9981    8.6369 H   0  0  0  0  0  0
    1.5129   16.4807    6.7237 H   0  0  0  0  0  0
   -0.1019   16.7655    5.9901 H   0  0  0  0  0  0
    0.3630   19.2055    5.9619 H   0  0  0  0  0  0
    1.9950   18.8877    6.6417 H   0  0  0  0  0  0
    2.0739   19.2087    4.2291 H   0  0  0  0  0  0
    0.9165   17.8540    4.0010 H   0  0  0  0  0  0
    2.5486   17.5362    4.6808 H   0  0  0  0  0  0
   -2.7234   12.6023   11.5087 H   0  0  0  0  0  0
   -3.6174   11.9572    8.6622 H   0  0  0  0  0  0
   -4.4942   11.6666   10.2028 H   0  0  0  0  0  0
   -5.2656   13.6802    8.5971 H   0  0  0  0  0  0
   -5.2101   13.9193   10.3765 H   0  0  0  0  0  0
   -3.7714   15.7058    9.7211 H   0  0  0  0  0  0
   -3.2024   14.8332    8.2577 H   0  0  0  0  0  0
   -1.7355   10.6610   11.6861 H   0  0  0  0  0  0
    0.8130   10.5471   10.2907 H   0  0  0  0  0  0
    0.4891    9.3869   12.4253 H   0  0  0  0  0  0
   -0.8472    8.3990   11.7433 H   0  0  0  0  0  0
    1.3079    7.0792   11.7983 H   0  0  0  0  0  0
    1.6717    9.4349    8.4988 H   0  0  0  0  0  0
   -0.4728    8.6584    6.6550 H   0  0  0  0  0  0
    1.4455    8.0238    5.0666 H   0  0  0  0  0  0
    2.9651    7.0470    6.8154 H   0  0  0  0  0  0
    0.7539   10.4217    5.3001 H   0  0  0  0  0  0
    2.5131   10.2430    4.9837 H   0  0  0  0  0  0
    1.9315   10.6073    6.6438 H   0  0  0  0  0  0
    0.9897    7.0424    9.2637 H   0  0  0  0  0  0
    1.1348    4.3811    8.0838 H   0  0  0  0  0  0
    2.0485    5.0212   10.3418 H   0  0  0  0  0  0
    0.3669    5.1224   10.9651 H   0  0  0  0  0  0
    0.0927    2.6590   10.4710 H   0  0  0  0  0  0
    1.7593    2.5065    8.6635 H   0  0  0  0  0  0
    2.0832    1.3364    9.9874 H   0  0  0  0  0  0
    3.0684    2.8321    9.8496 H   0  0  0  0  0  0
    0.7161    3.5627   12.6684 H   0  0  0  0  0  0
    2.4493    3.4573   12.2085 H   0  0  0  0  0  0
    1.4641    1.9616   12.3463 H   0  0  0  0  0  0
   -1.5209    6.3270    9.5019 H   0  0  0  0  0  0
   -2.9049    5.0729    9.1252 H   0  0  0  0  0  0
  1  2  2  0  0  0
  1  3  1  0  0  0
  1  4  1  0  0  0
  3118  1  0  0  0
  3119  1  0  0  0
  3120  1  0  0  0
  4  5  1  0  0  0
  4121  1  0  0  0
  5  6  1  0  0  0
  5  8  1  0  0  0
  5122  1  0  0  0
  6  7  2  0  0  0
  6 12  1  0  0  0
  8  9  1  0  0  0
  8 10  1  0  0  0
  8123  1  0  0  0
  9 11  1  0  0  0
  9124  1  0  0  0
  9125  1  0  0  0
 10126  1  0  0  0
 10127  1  0  0  0
 10128  1  0  0  0
 11129  1  0  0  0
 11130  1  0  0  0
 11131  1  0  0  0
 12 13  1  0  0  0
 12132  1  0  0  0
 13 14  1  0  0  0
 13133  1  0  0  0
 13134  1  0  0  0
 14 15  2  0  0  0
 14 16  1  0  0  0
 16 17  1  0  0  0
 16135  1  0  0  0
 17 18  1  0  0  0
 17 20  1  0  0  0
 17136  1  0  0  0
 18 19  2  0  0  0
 18 27  1  0  0  0
 20 21  1  0  0  0
 20137  1  0  0  0
 20138  1  0  0  0
 21 22  1  0  0  0
 21139  1  0  0  0
 21140  1  0  0  0
 22 23  1  0  0  0
 22141  1  0  0  0
 22142  1  0  0  0
 23 24  1  0  0  0
 23143  1  0  0  0
 24 25  1  0  0  0
 24 26  2  0  0  0
 25144  1  0  0  0
 25145  1  0  0  0
 26146  1  0  0  0
 27 28  1  0  0  0
 27147  1  0  0  0
 28 29  1  0  0  0
 28 31  1  0  0  0
 28148  1  0  0  0
 29 30  2  0  0  0
 29 38  1  0  0  0
 31 32  1  0  0  0
 31149  1  0  0  0
 31150  1  0  0  0
 32 33  1  0  0  0
 32151  1  0  0  0
 32152  1  0  0  0
 33 34  1  0  0  0
 33153  1  0  0  0
 33154  1  0  0  0
 34 35  1  0  0  0
 34155  1  0  0  0
 35 36  1  0  0  0
 35 37  2  0  0  0
 36156  1  0  0  0
 36157  1  0  0  0
 37158  1  0  0  0
 38 39  1  0  0  0
 38159  1  0  0  0
 39 40  1  0  0  0
 39 42  1  0  0  0
 39160  1  0  0  0
 40 41  2  0  0  0
 40 46  1  0  0  0
 42 43  1  0  0  0
 42161  1  0  0  0
 42162  1  0  0  0
 43 44  1  0  0  0
 43 45  1  0  0  0
 43163  1  0  0  0
 44164  1  0  0  0
 44165  1  0  0  0
 44166  1  0  0  0
 45167  1  0  0  0
 45168  1  0  0  0
 45169  1  0  0  0
 46 47  1  0  0  0
 46 52  1  0  0  0
 47 48  1  0  0  0
 47 50  1  0  0  0
 47170  1  0  0  0
 48 49  2  0  0  0
 48 53  1  0  0  0
 50 51  1  0  0  0
 50171  1  0  0  0
 50172  1  0  0  0
 51 52  1  0  0  0
 51173  1  0  0  0
 51174  1  0  0  0
 52175  1  0  0  0
 52176  1  0  0  0
 53 54  1  0  0  0
 53 59  1  0  0  0
 54 55  1  0  0  0
 54 57  1  0  0  0
 54177  1  0  0  0
 55 56  2  0  0  0
 55 60  1  0  0  0
 57 58  1  0  0  0
 57178  1  0  0  0
 57179  1  0  0  0
 58 59  1  0  0  0
 58180  1  0  0  0
 58181  1  0  0  0
 59182  1  0  0  0
 59183  1  0  0  0
 60 61  1  0  0  0
 60184  1  0  0  0
 61 62  1  0  0  0
 61 64  1  0  0  0
 61185  1  0  0  0
 62 63  2  0  0  0
 62 67  1  0  0  0
 64 65  1  0  0  0
 64 66  1  0  0  0
 64186  1  0  0  0
 65187  1  0  0  0
 66188  1  0  0  0
 66189  1  0  0  0
 66190  1  0  0  0
 67 68  1  0  0  0
 67 73  1  0  0  0
 68 69  1  0  0  0
 68 71  1  0  0  0
 68191  1  0  0  0
 69 70  2  0  0  0
 69 74  1  0  0  0
 71 72  1  0  0  0
 71192  1  0  0  0
 71193  1  0  0  0
 72 73  1  0  0  0
 72194  1  0  0  0
 72195  1  0  0  0
 73196  1  0  0  0
 73197  1  0  0  0
 74 75  1  0  0  0
 74198  1  0  0  0
 75 76  1  0  0  0
 75 78  1  0  0  0
 75199  1  0  0  0
 76 77  2  0  0  0
 76 80  1  0  0  0
 78 79  1  0  0  0
 78200  1  0  0  0
 78201  1  0  0  0
 79202  1  0  0  0
 80 81  1  0  0  0
 80203  1  0  0  0
 81 82  1  0  0  0
 81 84  1  0  0  0
 81204  1  0  0  0
 82 83  2  0  0  0
 82 89  1  0  0  0
 84 85  1  0  0  0
 84205  1  0  0  0
 84206  1  0  0  0
 85 86  1  0  0  0
 85207  1  0  0  0
 85208  1  0  0  0
 86 87  1  0  0  0
 86209  1  0  0  0
 86210  1  0  0  0
 87 88  1  0  0  0
 87211  1  0  0  0
 87212  1  0  0  0
 88213  1  0  0  0
 88214  1  0  0  0
 88215  1  0  0  0
 89 90  1  0  0  0
 89 95  1  0  0  0
 90 91  1  0  0  0
 90 93  1  0  0  0
 90216  1  0  0  0
 91 92  2  0  0  0
 91 96  1  0  0  0
 93 94  1  0  0  0
 93217  1  0  0  0
 93218  1  0  0  0
 94 95  1  0  0  0
 94219  1  0  0  0
 94220  1  0  0  0
 95221  1  0  0  0
 95222  1  0  0  0
 96 97  1  0  0  0
 96223  1  0  0  0
 97 98  1  0  0  0
 97100  1  0  0  0
 97224  1  0  0  0
 98 99  2  0  0  0
 98102  1  0  0  0
100101  1  0  0  0
100225  1  0  0  0
100226  1  0  0  0
101227  1  0  0  0
102103  1  0  0  0
102228  1  0  0  0
103104  1  0  0  0
103106  1  0  0  0
103229  1  0  0  0
104105  2  0  0  0
104109  1  0  0  0
106107  1  0  0  0
106108  1  0  0  0
106230  1  0  0  0
107231  1  0  0  0
108232  1  0  0  0
108233  1  0  0  0
108234  1  0  0  0
109110  1  0  0  0
109235  1  0  0  0
110111  1  0  0  0
110113  1  0  0  0
110236  1  0  0  0
111112  2  0  0  0
111117  1  0  0  0
113114  1  0  0  0
113237  1  0  0  0
113238  1  0  0  0
114115  1  0  0  0
114116  1  0  0  0
114239  1  0  0  0
115240  1  0  0  0
115241  1  0  0  0
115242  1  0  0  0
116243  1  0  0  0
116244  1  0  0  0
116245  1  0  0  0
117246  1  0  0  0
117247  1  0  0  0
M  CHG  1  88   1
M  END
> <s_m_source_file>
../4z8a_ligand.sdf

> <i_m_source_file_index>
1

> <s_epik_input>
Tz1DKFtDSDNdKVtOSF1bQ0BASF0oW0NAQEhdKFtDSDNdKVtDSDJdW0NIM10pQyg9TylbTkhdW0NIMl1DKD1PKVtOSF1bQ0BASF0oW0NIMl1bQ0gyXVtDSDJdW05IXS9DKFtOSDJdKT1OXFtIXSlDKD1PKVtOSF1bQ0BASF0oW0NIMl1bQ0gyXVtDSDJdW05IXS9DKFtOSDJdKT1OXFtIXSlDKD1PKVtOSF1bQ0BASF0oW0NIMl1bQ0hdKFtDSDNdKVtDSDNdKUMoPU8pTjFbQ0BASF0oW0NIMl1bQ0gyXVtDSDJdMSlDKD1PKU4yW0NAQEhdKFtDSDJdW0NIMl1bQ0gyXTIpQyg9TylbTkhdW0NAQEhdKFtDQEhdKFtPSF0pW0NIM10pQyg9TylOM1tDQEBIXShbQ0gyXVtDSDJdW0NIMl0zKUMoPU8pW05IXVtDQEBIXShbQ0gyXVtPSF0pQyg9TylbTkhdW0NAQEhdKFtDSDJdW0NIMl1bQ0gyXVtDSDJdW05IMytdKUMoPU8pTjRbQ0BASF0oW0NIMl1bQ0gyXVtDSDJdNClDKD1PKVtOSF1bQ0BASF0oW0NIMl1bT0hdKUMoPU8pW05IXVtDQEBIXShbQ0BIXShbT0hdKVtDSDNdKUMoPU8pW05IXVtDQEhdKEMoPU8pW05IMl0pW0NIMl1bQ0hdKFtDSDNdKVtDSDNd

> <s_epik_cmdline>
J2VwaWtfYXBwJywgJy1pbWFlJywgJ2xpZ2FuZF9wcm8ubWFlJywgJy1vbWFlJywgJ2xpZ2FuZF9wcmVwLm1hZScsICctbXMnLCAnMScsICctcGgnLCAnNycsICctcGh0JywgJzAuNScsICctbnQn

> <s_epik_pKa_notes>
Molecule size exceeds maximum supported for generating protonation states

> <s_epik_Chemistry_Notes>
This compound has an imine and may undergo hydrolysis.

$$$$
