4z8m_ligand
                    3D
 Schrodinger Suite 2020-3.
131132  0  0  1  0            999 V2000
   20.6330   99.8590   13.1960 N   0  3  0  0  0  0
   20.0490   98.9150   14.1500 C   0  0  2  0  0  0
   20.8610   98.8270   15.4630 C   0  0  0  0  0  0
   22.0200   98.3850   15.4650 O   0  0  0  0  0  0
   19.9180   97.5220   13.5080 C   0  0  0  0  0  0
   20.2470   99.2580   16.5690 N   0  0  0  0  0  0
   20.8180   99.0890   17.9020 C   0  0  0  0  0  0
   19.9190   98.2580   18.8190 C   0  0  0  0  0  0
   18.7210   98.0970   18.5420 O   0  0  0  0  0  0
   20.4820   97.7250   19.9210 N   0  0  0  0  0  0
   19.7460   96.9010   20.8980 C   0  0  2  0  0  0
   18.7970   97.7000   21.8110 C   0  0  0  0  0  0
   19.0060   98.8890   22.0070 O   0  0  0  0  0  0
   20.8690   96.2550   21.7260 C   0  0  0  0  0  0
   21.9660   97.1940   21.6390 C   0  0  0  0  0  0
   21.9010   97.8410   20.2770 C   0  0  0  0  0  0
   17.7700   97.0490   22.3500 N   0  0  0  0  0  0
   16.8580   97.6800   23.2960 C   0  0  2  0  0  0
   16.2490   96.6450   24.2480 C   0  0  0  0  0  0
   16.1030   95.4660   23.9030 O   0  0  0  0  0  0
   15.7550   98.4180   22.5550 C   0  0  0  0  0  0
   15.9180   97.0770   25.4590 N   0  0  0  0  0  0
   15.1650   96.2320   26.3710 C   0  0  2  0  0  0
   13.8040   96.0190   25.7790 C   0  0  0  0  0  0
   13.2910   96.8830   25.0860 O   0  0  0  0  0  0
   15.0290   96.8580   27.7460 C   0  0  0  0  0  0
   16.0810   96.4340   28.7310 C   0  0  0  0  0  0
   15.8780   97.0900   30.0950 C   0  0  0  0  0  0
   15.0710   98.0540   30.1730 O   0  5  0  0  0  0
   16.5210   96.6500   31.0840 O   0  0  0  0  0  0
   13.1990   94.8840   26.0800 N   0  0  0  0  0  0
   11.9810   94.4970   25.4150 C   0  0  2  0  0  0
   11.2660   93.4380   26.2220 C   0  0  0  0  0  0
   11.7990   92.3610   26.4170 O   0  0  0  0  0  0
   12.3130   93.9850   24.0230 C   0  0  0  0  0  0
   11.1000   93.8260   23.1550 C   0  0  0  0  0  0
   10.3790   92.8210   23.2350 O   0  0  0  0  0  0
   10.8830   94.7990   22.2810 N   0  0  0  0  0  0
   10.0610   93.7530   26.6910 N   0  0  0  0  0  0
    9.3250   92.8780   27.5910 C   0  0  2  0  0  0
    8.2880   92.0570   26.8130 C   0  0  0  0  0  0
    7.8030   92.4920   25.7730 O   0  0  0  0  0  0
    8.6780   93.7040   28.7260 C   0  0  0  0  0  0
    7.7690   92.8660   29.6320 C   0  0  0  0  0  0
    7.4680   93.5160   30.9680 C   0  0  0  0  0  0
    8.1250   94.5280   31.2890 O   0  0  0  0  0  0
    6.5970   92.9890   31.7100 O   0  5  0  0  0  0
    7.9850   90.8570   27.3060 N   0  0  0  0  0  0
    7.0500   89.9250   26.6660 C   0  0  2  0  0  0
    6.1430   89.2310   27.7160 C   0  0  0  0  0  0
    6.6550   88.6310   28.6700 O   0  0  0  0  0  0
    7.8550   88.8970   25.8690 C   0  0  0  0  0  0
    7.0590   87.7660   25.2730 C   0  0  0  0  0  0
    7.0870   86.4930   25.8510 C   0  0  0  0  0  0
    6.2880   87.9530   24.1310 C   0  0  0  0  0  0
    6.3590   85.4280   25.3040 C   0  0  0  0  0  0
    5.5510   86.8980   23.5730 C   0  0  0  0  0  0
    5.5890   85.6320   24.1620 C   0  0  0  0  0  0
    4.8630   84.5780   23.6180 O   0  0  0  0  0  0
    4.8120   89.2680   27.5600 N   0  0  0  0  0  0
    4.1100   89.7360   26.3650 C   0  0  2  0  0  0
    3.7790   91.2250   26.4710 C   0  0  0  0  0  0
    3.7980   91.9490   25.4720 O   0  0  0  0  0  0
    2.8150   88.9180   26.1490 C   0  0  0  0  0  0
    2.9590   87.3920   26.2750 C   0  0  0  0  0  0
    1.7410   86.7560   26.9610 C   0  0  0  0  0  0
    1.4290   85.3440   26.4290 C   0  0  0  0  0  0
    1.2710   85.2510   24.9360 N   0  3  0  0  0  0
    3.4870   91.7310   27.5580 O   0  5  0  0  0  0
   20.7209  100.8491   13.6670 H   0  0  0  0  0  0
   19.9865   99.9310   12.3090 H   0  0  0  0  0  0
   21.6305   99.5063   12.8951 H   0  0  0  0  0  0
   19.0573   99.3360   14.3719 H   0  0  0  0  0  0
   19.3387   97.6007   12.5762 H   0  0  0  0  0  0
   19.4022   96.8444   14.2043 H   0  0  0  0  0  0
   20.9195   97.1255   13.2848 H   0  0  0  0  0  0
   19.2743   99.7568   16.4465 H   0  0  0  0  0  0
   21.7887   98.5776   17.8229 H   0  0  0  0  0  0
   20.9601  100.0753   18.3678 H   0  0  0  0  0  0
   19.0953   96.2024   20.3517 H   0  0  0  0  0  0
   20.5274   96.1169   22.7624 H   0  0  0  0  0  0
   21.1288   95.2780   21.2923 H   0  0  0  0  0  0
   21.8638   97.9515   22.4301 H   0  0  0  0  0  0
   22.9183   96.6581   21.7653 H   0  0  0  0  0  0
   22.5109   97.3128   19.5294 H   0  0  0  0  0  0
   22.1876   98.9027   20.3001 H   0  0  0  0  0  0
   17.6206   95.9987   22.0590 H   0  0  0  0  0  0
   17.4739   98.3945   23.8619 H   0  0  0  0  0  0
   16.2019   99.1580   21.8748 H   0  0  0  0  0  0
   15.1061   98.9312   23.2800 H   0  0  0  0  0  0
   15.1589   97.6989   21.9740 H   0  0  0  0  0  0
   16.2208   98.0880   25.7691 H   0  0  0  0  0  0
   15.7228   95.2889   26.4677 H   0  0  0  0  0  0
   15.0955   97.9525   27.6588 H   0  0  0  0  0  0
   14.0561   96.5832   28.1794 H   0  0  0  0  0  0
   16.0409   95.3427   28.8632 H   0  0  0  0  0  0
   17.0736   96.7214   28.3539 H   0  0  0  0  0  0
   13.6369   94.2311   26.8494 H   0  0  0  0  0  0
   11.3480   95.3946   25.3544 H   0  0  0  0  0  0
   12.9915   94.6927   23.5242 H   0  0  0  0  0  0
   12.8007   93.0021   24.1005 H   0  0  0  0  0  0
   11.5533   95.6707   22.2507 H   0  0  0  0  0  0
   10.0327   94.7346   21.5861 H   0  0  0  0  0  0
    9.6233   94.7118   26.3760 H   0  0  0  0  0  0
   10.0684   92.1880   28.0168 H   0  0  0  0  0  0
    9.4663   94.1418   29.3560 H   0  0  0  0  0  0
    8.0668   94.5087   28.2913 H   0  0  0  0  0  0
    6.8062   92.6951   29.1282 H   0  0  0  0  0  0
    8.2502   91.8991   29.8408 H   0  0  0  0  0  0
    8.4807   90.5788   28.2477 H   0  0  0  0  0  0
    6.4200   90.5225   25.9906 H   0  0  0  0  0  0
    8.3581   89.3971   25.0283 H   0  0  0  0  0  0
    8.6078   88.4335   26.5235 H   0  0  0  0  0  0
    7.6874   86.3258   26.7453 H   0  0  0  0  0  0
    6.2558   88.9361   23.6614 H   0  0  0  0  0  0
    6.3953   84.4436   25.7707 H   0  0  0  0  0  0
    4.9489   87.0660   22.6801 H   0  0  0  0  0  0
    4.8991   83.5845   24.0888 H   0  0  0  0  0  0
    4.2404   88.9071   28.4278 H   0  0  0  0  0  0
    4.8161   89.5809   25.5359 H   0  0  0  0  0  0
    2.0631   89.2184   26.8936 H   0  0  0  0  0  0
    2.4258   89.1077   25.1378 H   0  0  0  0  0  0
    3.0599   86.9493   25.2731 H   0  0  0  0  0  0
    3.8524   87.1560   26.8718 H   0  0  0  0  0  0
    1.9297   86.6748   28.0416 H   0  0  0  0  0  0
    0.8543   87.3841   26.7899 H   0  0  0  0  0  0
    2.2454   84.6600   26.7038 H   0  0  0  0  0  0
    0.4868   84.9860   26.8696 H   0  0  0  0  0  0
    1.0515   84.2105   24.6546 H   0  0  0  0  0  0
    2.2023   85.5742   24.4479 H   0  0  0  0  0  0
    0.4436   85.9003   24.6137 H   0  0  0  0  0  0
  1  2  1  0  0  0
  1 70  1  0  0  0
  1 71  1  0  0  0
  1 72  1  0  0  0
  2  3  1  0  0  0
  2  5  1  0  0  0
  2 73  1  0  0  0
  3  4  2  0  0  0
  3  6  1  0  0  0
  5 74  1  0  0  0
  5 75  1  0  0  0
  5 76  1  0  0  0
  6  7  1  0  0  0
  6 77  1  0  0  0
  7  8  1  0  0  0
  7 78  1  0  0  0
  7 79  1  0  0  0
  8  9  2  0  0  0
  8 10  1  0  0  0
 10 11  1  0  0  0
 10 16  1  0  0  0
 11 12  1  0  0  0
 11 14  1  0  0  0
 11 80  1  0  0  0
 12 13  2  0  0  0
 12 17  1  0  0  0
 14 15  1  0  0  0
 14 81  1  0  0  0
 14 82  1  0  0  0
 15 16  1  0  0  0
 15 83  1  0  0  0
 15 84  1  0  0  0
 16 85  1  0  0  0
 16 86  1  0  0  0
 17 18  1  0  0  0
 17 87  1  0  0  0
 18 19  1  0  0  0
 18 21  1  0  0  0
 18 88  1  0  0  0
 19 20  2  0  0  0
 19 22  1  0  0  0
 21 89  1  0  0  0
 21 90  1  0  0  0
 21 91  1  0  0  0
 22 23  1  0  0  0
 22 92  1  0  0  0
 23 24  1  0  0  0
 23 26  1  0  0  0
 23 93  1  0  0  0
 24 25  2  0  0  0
 24 31  1  0  0  0
 26 27  1  0  0  0
 26 94  1  0  0  0
 26 95  1  0  0  0
 27 28  1  0  0  0
 27 96  1  0  0  0
 27 97  1  0  0  0
 28 29  1  0  0  0
 28 30  2  0  0  0
 31 32  1  0  0  0
 31 98  1  0  0  0
 32 33  1  0  0  0
 32 35  1  0  0  0
 32 99  1  0  0  0
 33 34  2  0  0  0
 33 39  1  0  0  0
 35 36  1  0  0  0
 35100  1  0  0  0
 35101  1  0  0  0
 36 37  2  0  0  0
 36 38  1  0  0  0
 38102  1  0  0  0
 38103  1  0  0  0
 39 40  1  0  0  0
 39104  1  0  0  0
 40 41  1  0  0  0
 40 43  1  0  0  0
 40105  1  0  0  0
 41 42  2  0  0  0
 41 48  1  0  0  0
 43 44  1  0  0  0
 43106  1  0  0  0
 43107  1  0  0  0
 44 45  1  0  0  0
 44108  1  0  0  0
 44109  1  0  0  0
 45 46  2  0  0  0
 45 47  1  0  0  0
 48 49  1  0  0  0
 48110  1  0  0  0
 49 50  1  0  0  0
 49 52  1  0  0  0
 49111  1  0  0  0
 50 51  2  0  0  0
 50 60  1  0  0  0
 52 53  1  0  0  0
 52112  1  0  0  0
 52113  1  0  0  0
 53 54  2  0  0  0
 53 55  1  0  0  0
 54 56  1  0  0  0
 54114  1  0  0  0
 55 57  2  0  0  0
 55115  1  0  0  0
 56 58  2  0  0  0
 56116  1  0  0  0
 57 58  1  0  0  0
 57117  1  0  0  0
 58 59  1  0  0  0
 59118  1  0  0  0
 60 61  1  0  0  0
 60119  1  0  0  0
 61 62  1  0  0  0
 61 64  1  0  0  0
 61120  1  0  0  0
 62 63  2  0  0  0
 62 69  1  0  0  0
 64 65  1  0  0  0
 64121  1  0  0  0
 64122  1  0  0  0
 65 66  1  0  0  0
 65123  1  0  0  0
 65124  1  0  0  0
 66 67  1  0  0  0
 66125  1  0  0  0
 66126  1  0  0  0
 67 68  1  0  0  0
 67127  1  0  0  0
 67128  1  0  0  0
 68129  1  0  0  0
 68130  1  0  0  0
 68131  1  0  0  0
M  CHG  5   1   1  29  -1  47  -1  68   1  69  -1
M  END
> <s_m_source_file>
../4z8m_ligand.sdf

> <i_m_source_file_index>
1

> <s_epik_input>
W05IMytdW0NAQEhdKFtDSDNdKUMoPU8pW05IXVtDSDJdQyg9TylOMVtDQEBIXShbQ0gyXVtDSDJdW0NIMl0xKUMoPU8pW05IXVtDQEBIXShbQ0gzXSlDKD1PKVtOSF1bQ0BASF0oW0NIMl1bQ0gyXUMoPU8pW09IXSlDKD1PKVtOSF1bQ0BASF0oW0NIMl1DKD1PKVtOSDJdKUMoPU8pW05IXVtDQEBIXShbQ0gyXVtDSDJdQyg9TylbT0hdKUMoPU8pW05IXVtDQEBIXShbQ0gyXWMyW2NIXVtjSF1jKFtPSF0pW2NIXVtjSF0yKUMoPU8pW05IXVtDQEhdKEMoPU8pW09IXSlbQ0gyXVtDSDJdW0NIMl1bQ0gyXVtOSDMrXQ==

> <s_epik_cmdline>
J2VwaWtfYXBwJywgJy1pbWFlJywgJ2xpZ2FuZF9wcm8ubWFlJywgJy1vbWFlJywgJ2xpZ2FuZF9wcmVwLm1hZScsICctbXMnLCAnMScsICctcGgnLCAnNycsICctcGh0JywgJzAuNScsICctbnQn

> <r_lp_tautomer_probability>
0.999999999997365

> <r_epik_Ionization_Penalty>
  0.1281

> <r_epik_Ionization_Penalty_Charging>
  0.1273

> <r_epik_Ionization_Penalty_Neutral>
  0.0008

> <r_epik_State_Penalty>
  0.1128

> <r_epik_Charging_Adjusted_Penalty>
0.240082388774594

> <i_epik_Tot_Q>
-1

> <i_epik_Tot_abs_Q>
5

$$$$
