4z93_ligand
                    3D
 Schrodinger Suite 2020-3.
 53 58  0  0  1  0            999 V2000
   16.3430   -7.4940    9.5250 C   0  0  0  0  0  0
   18.1460   -5.3920    8.7370 C   0  0  0  0  0  0
   19.0040   -4.4430    8.1980 C   0  0  0  0  0  0
   20.2450   -3.8670    8.6390 C   0  0  0  0  0  0
   21.0110   -3.9440    9.8000 C   0  0  0  0  0  0
   15.2480   -6.9180    5.6550 C   0  0  0  0  0  0
   14.4390   -4.8440    5.5870 C   0  0  0  0  0  0
   21.3190   -5.6440   11.6520 C   0  0  0  0  0  0
   13.5020   -5.6720    5.0880 N   0  0  0  0  0  0
   13.9930   -6.9580    5.1230 O   0  0  0  0  0  0
   20.6020   -4.6340   10.9890 C   0  0  0  0  0  0
   20.7100   -3.0580    7.5560 C   0  0  0  0  0  0
   16.0030   -8.1740    5.7520 C   0  0  0  0  0  0
   15.5740   -5.6330    5.9890 C   0  0  0  0  0  0
   16.7770   -5.2010    6.6980 C   0  0  0  0  0  0
   18.7580   -3.9110    6.9180 C   0  0  0  0  0  0
   17.0110   -5.7660    7.9700 C   0  0  0  0  0  0
   20.5160   -6.0370   12.6970 N   0  0  0  0  0  0
   14.2790   -3.3760    5.6710 C   0  0  0  0  0  0
   16.0530   -6.6700    8.4170 O   0  0  0  0  0  0
   22.6540   -6.2430   11.3800 C   0  0  0  0  0  0
   19.3770   -4.4860   11.7240 C   0  0  3  0  0  0
   18.2640   -3.5490   11.4640 C   0  0  0  0  0  0
   17.4220   -3.0260   12.6190 C   0  0  0  0  0  0
   16.8400   -4.0360   11.6930 C   0  0  0  0  0  0
   22.6470   -2.5870    8.7850 C   0  0  0  0  0  0
   21.9420   -2.4110    7.5900 C   0  0  0  0  0  0
   17.6740   -4.2630    6.1650 C   0  0  0  0  0  0
   19.3350   -5.3610   12.7590 N   0  0  0  0  0  0
   22.2240   -3.2870    9.8600 N   0  0  0  0  0  0
   19.8000   -3.0580    6.5410 N   0  3  0  0  0  0
   15.4788   -8.1407    9.7371 H   0  0  0  0  0  0
   16.5556   -6.8664   10.4030 H   0  0  0  0  0  0
   17.2207   -8.1173    9.2987 H   0  0  0  0  0  0
   18.3369   -5.8345    9.7147 H   0  0  0  0  0  0
   15.3855   -9.0030    5.3759 H   0  0  0  0  0  0
   16.2685   -8.3620    6.8028 H   0  0  0  0  0  0
   16.9204   -8.0977    5.1499 H   0  0  0  0  0  0
   13.2911   -3.0918    5.2794 H   0  0  0  0  0  0
   15.0640   -2.8870    5.0756 H   0  0  0  0  0  0
   14.3628   -3.0575    6.7205 H   0  0  0  0  0  0
   23.0978   -5.7632   10.4952 H   0  0  0  0  0  0
   22.5411   -7.3213   11.1945 H   0  0  0  0  0  0
   23.3098   -6.0872   12.2493 H   0  0  0  0  0  0
   18.8403   -3.0987   10.6423 H   0  0  0  0  0  0
   17.9223   -3.2563   13.5712 H   0  0  0  0  0  0
   17.3023   -1.9369   12.5218 H   0  0  0  0  0  0
   16.2266   -3.8039   10.8099 H   0  0  0  0  0  0
   16.8466   -5.1233   11.8593 H   0  0  0  0  0  0
   23.6276   -2.1162    8.8553 H   0  0  0  0  0  0
   22.3238   -1.8191    6.7582 H   0  0  0  0  0  0
   17.5107   -3.8279    5.1790 H   0  0  0  0  0  0
   19.9786   -2.4495    5.6422 H   0  0  0  0  0  0
  1 20  1  0  0  0
  1 32  1  0  0  0
  1 33  1  0  0  0
  1 34  1  0  0  0
  2  3  2  0  0  0
  2 17  1  0  0  0
  2 35  1  0  0  0
  3  4  1  0  0  0
  3 16  1  0  0  0
  4  5  2  0  0  0
  4 12  1  0  0  0
  5 11  1  0  0  0
  5 30  1  0  0  0
  6 10  1  0  0  0
  6 13  1  0  0  0
  6 14  2  0  0  0
  7  9  2  0  0  0
  7 14  1  0  0  0
  7 19  1  0  0  0
  8 11  2  0  0  0
  8 18  1  0  0  0
  8 21  1  0  0  0
  9 10  1  0  0  0
 11 22  1  0  0  0
 12 27  2  0  0  0
 12 31  1  0  0  0
 13 36  1  0  0  0
 13 37  1  0  0  0
 13 38  1  0  0  0
 14 15  1  0  0  0
 15 17  2  0  0  0
 15 28  1  0  0  0
 16 28  2  0  0  0
 16 31  1  0  0  0
 17 20  1  0  0  0
 18 29  2  0  0  0
 19 39  1  0  0  0
 19 40  1  0  0  0
 19 41  1  0  0  0
 21 42  1  0  0  0
 21 43  1  0  0  0
 21 44  1  0  0  0
 22 23  1  0  0  0
 22 29  1  0  0  0
 23 24  1  0  0  0
 23 25  1  0  0  0
 23 45  1  0  0  0
 24 25  1  0  0  0
 24 46  1  0  0  0
 24 47  1  0  0  0
 25 48  1  0  0  0
 25 49  1  0  0  0
 26 27  1  0  0  0
 26 30  2  0  0  0
 26 50  1  0  0  0
 27 51  1  0  0  0
 28 52  1  0  0  0
 31 53  1  0  0  0
M  CHG  1  31   1
M  END
> <s_m_source_file>
../4z93_ligand.sdf

> <i_m_source_file_index>
1

> <s_epik_input>
W0NIM11jMW9uYyhbQ0gzXSljMS1jKGMoW2NIXTIpT1tDSDNdKVtjSF1jM1tuSF1jKGM0YzIzKVtjSF1bY0hdbmM0Qyg9QzVbQ0gzXSlbQ0hdKE49TjUpW0NIXTZbQ0gyXVtDSDJdNg==

> <s_epik_cmdline>
J2VwaWtfYXBwJywgJy1pbWFlJywgJ2xpZ2FuZF9wcm8ubWFlJywgJy1vbWFlJywgJ2xpZ2FuZF9wcmVwLm1hZScsICctbXMnLCAnMScsICctcGgnLCAnNycsICctcGh0JywgJzAuNScsICctbnQn

> <r_lp_tautomer_probability>
1

> <r_epik_Ionization_Penalty>
  0.0061

> <r_epik_Ionization_Penalty_Charging>
  0.0000

> <r_epik_Ionization_Penalty_Neutral>
  0.0061

> <r_epik_State_Penalty>
 -0.0000

> <r_epik_Charging_Adjusted_Penalty>
0

> <i_epik_Tot_Q>
1

> <i_epik_Tot_abs_Q>
1

$$$$
