4z9l_ligand
                    3D
 Schrodinger Suite 2020-3.
 70 74  0  0  1  0            999 V2000
   22.2000   11.0150   30.7570 N   0  0  0  0  0  0
   22.2780   12.3860   30.7190 C   0  0  0  0  0  0
   21.4500   12.9460   31.5580 N   0  0  0  0  0  0
   20.8010   11.9110   32.2000 C   0  0  0  0  0  0
   21.2360   10.6860   31.7150 C   0  0  0  0  0  0
   22.9600   10.1030   29.8940 C   0  0  0  0  0  0
   24.3340    9.7400   30.4480 C   0  0  0  0  0  0
   24.7860   10.5230   31.6420 C   0  0  0  0  0  0
   23.2050   13.2110   29.8620 C   0  0  0  0  0  0
   22.3890   13.9220   28.7790 C   0  0  0  0  0  0
   23.2900   14.7370   27.8720 C   0  0  0  0  0  0
   24.0620   15.7320   28.6670 N   0  3  0  0  0  0
   24.8680   15.0900   29.7450 C   0  0  0  0  0  0
   23.9780   14.2670   30.6570 C   0  0  0  0  0  0
   19.7100   12.2760   33.1270 C   0  0  0  0  0  0
   20.7530    9.3180   32.0230 C   0  0  0  0  0  0
   19.6460   11.7290   34.4060 C   0  0  0  0  0  0
   18.6620   12.1450   35.2840 C   0  0  0  0  0  0
   17.7160   13.0860   34.8910 C   0  0  0  0  0  0
   17.7710   13.6230   33.6150 C   0  0  0  0  0  0
   18.7660   13.2260   32.7420 C   0  0  0  0  0  0
   18.6690   11.5180   36.8940 Cl  0  0  0  0  0  0
   16.4790   13.6230   35.9830 Cl  0  0  0  0  0  0
   19.4600    9.0730   32.4670 C   0  0  0  0  0  0
   19.1530    7.7670   32.7920 C   0  0  0  0  0  0
   20.0120    6.7470   32.6450 N   0  0  0  0  0  0
   21.2050    7.0730   32.1200 C   0  0  0  0  0  0
   21.6360    8.3230   31.8330 N   0  0  0  0  0  0
   22.0030    6.0430   31.7830 N   0  0  0  0  0  0
   23.3160    6.0850   31.1410 C   0  0  0  0  0  0
   24.1360    4.8510   31.5010 C   0  0  0  0  0  0
   25.4950    4.8780   30.8090 C   0  0  0  0  0  0
   25.3430    4.9950   29.2960 C   0  0  0  0  0  0
   24.4960    6.2110   28.9180 C   0  0  0  0  0  0
   23.1450    6.1920   29.6310 C   0  0  0  0  0  0
   22.3990    9.1653   29.7674 H   0  0  0  0  0  0
   23.1159   10.5725   28.9115 H   0  0  0  0  0  0
   24.3382    8.6837   30.7550 H   0  0  0  0  0  0
   25.0963    9.8990   29.6711 H   0  0  0  0  0  0
   25.7832   10.1769   31.9514 H   0  0  0  0  0  0
   24.0743   10.3759   32.4677 H   0  0  0  0  0  0
   24.8324   11.5913   31.3838 H   0  0  0  0  0  0
   23.9323   12.5046   29.4353 H   0  0  0  0  0  0
   21.8570   13.1753   28.1713 H   0  0  0  0  0  0
   21.6600   14.5962   29.2524 H   0  0  0  0  0  0
   23.9933   14.0670   27.3557 H   0  0  0  0  0  0
   22.6778   15.2690   27.1289 H   0  0  0  0  0  0
   24.7508   16.2761   28.0040 H   0  0  0  0  0  0
   23.3676   16.4434   29.1378 H   0  0  0  0  0  0
   25.6241   14.4304   29.2941 H   0  0  0  0  0  0
   25.3683   15.8674   30.3412 H   0  0  0  0  0  0
   23.2678   14.9407   31.1588 H   0  0  0  0  0  0
   24.6075   13.7708   31.4103 H   0  0  0  0  0  0
   20.3699   10.9747   34.7143 H   0  0  0  0  0  0
   17.0302   14.3579   33.3000 H   0  0  0  0  0  0
   18.8128   13.6599   31.7432 H   0  0  0  0  0  0
   18.7241    9.8724   32.5545 H   0  0  0  0  0  0
   18.1606    7.5532   33.1889 H   0  0  0  0  0  0
   21.5526    5.0759   32.0512 H   0  0  0  0  0  0
   23.8242    6.9797   31.5298 H   0  0  0  0  0  0
   24.2944    4.8207   32.5891 H   0  0  0  0  0  0
   23.5961    3.9466   31.1837 H   0  0  0  0  0  0
   26.0735    5.7408   31.1707 H   0  0  0  0  0  0
   26.0403    3.9499   31.0355 H   0  0  0  0  0  0
   26.3360    5.1019   28.8349 H   0  0  0  0  0  0
   24.8529    4.0909   28.9057 H   0  0  0  0  0  0
   25.0279    7.1310   29.2021 H   0  0  0  0  0  0
   24.3180    6.2108   27.8325 H   0  0  0  0  0  0
   22.5690    5.3292   29.2652 H   0  0  0  0  0  0
   22.6084    7.1209   29.3876 H   0  0  0  0  0  0
  1  2  1  0  0  0
  1  5  1  0  0  0
  1  6  1  0  0  0
  2  3  2  0  0  0
  2  9  1  0  0  0
  3  4  1  0  0  0
  4  5  2  0  0  0
  4 15  1  0  0  0
  5 16  1  0  0  0
  6  7  1  0  0  0
  6 36  1  0  0  0
  6 37  1  0  0  0
  7  8  1  0  0  0
  7 38  1  0  0  0
  7 39  1  0  0  0
  8 40  1  0  0  0
  8 41  1  0  0  0
  8 42  1  0  0  0
  9 10  1  0  0  0
  9 14  1  0  0  0
  9 43  1  0  0  0
 10 11  1  0  0  0
 10 44  1  0  0  0
 10 45  1  0  0  0
 11 12  1  0  0  0
 11 46  1  0  0  0
 11 47  1  0  0  0
 12 13  1  0  0  0
 12 48  1  0  0  0
 12 49  1  0  0  0
 13 14  1  0  0  0
 13 50  1  0  0  0
 13 51  1  0  0  0
 14 52  1  0  0  0
 14 53  1  0  0  0
 15 17  2  0  0  0
 15 21  1  0  0  0
 16 24  2  0  0  0
 16 28  1  0  0  0
 17 18  1  0  0  0
 17 54  1  0  0  0
 18 19  2  0  0  0
 18 22  1  0  0  0
 19 20  1  0  0  0
 19 23  1  0  0  0
 20 21  2  0  0  0
 20 55  1  0  0  0
 21 56  1  0  0  0
 24 25  1  0  0  0
 24 57  1  0  0  0
 25 26  2  0  0  0
 25 58  1  0  0  0
 26 27  1  0  0  0
 27 28  2  0  0  0
 27 29  1  0  0  0
 29 30  1  0  0  0
 29 59  1  0  0  0
 30 31  1  0  0  0
 30 35  1  0  0  0
 30 60  1  0  0  0
 31 32  1  0  0  0
 31 61  1  0  0  0
 31 62  1  0  0  0
 32 33  1  0  0  0
 32 63  1  0  0  0
 32 64  1  0  0  0
 33 34  1  0  0  0
 33 65  1  0  0  0
 33 66  1  0  0  0
 34 35  1  0  0  0
 34 67  1  0  0  0
 34 68  1  0  0  0
 35 69  1  0  0  0
 35 70  1  0  0  0
M  CHG  1  12   1
M  END
> <s_m_source_file>
../4z9l_ligand.sdf

> <i_m_source_file_index>
1

> <s_epik_input>
W0NIMl0xW0NIMl1bTkgyK11bQ0gyXVtDSDJdW0NIXTFjKG4yW0NIMl1bQ0gyXVtDSDNdKW5jKC1jM1tjSF1jKENsKWMoQ2wpW2NIXVtjSF0zKWMyLWM0W2NIXVtjSF1uYyhuNClbTkhdW0NIXTVbQ0gyXVtDSDJdW0NIMl1bQ0gyXVtDSDJdNQ==

> <s_epik_cmdline>
J2VwaWtfYXBwJywgJy1pbWFlJywgJ2xpZ2FuZF9wcm8ubWFlJywgJy1vbWFlJywgJ2xpZ2FuZF9wcmVwLm1hZScsICctbXMnLCAnMScsICctcGgnLCAnNycsICctcGh0JywgJzAuNScsICctbnQn

> <r_lp_tautomer_probability>
1

> <r_epik_Ionization_Penalty>
  0.0071

> <r_epik_Ionization_Penalty_Charging>
  0.0063

> <r_epik_Ionization_Penalty_Neutral>
  0.0007

> <r_epik_State_Penalty>
 -0.0000

> <r_epik_Charging_Adjusted_Penalty>
0.00633982208614655

> <i_epik_Tot_Q>
1

> <i_epik_Tot_abs_Q>
1

$$$$
