4zae_ligand
                    3D
 Schrodinger Suite 2020-3.
 57 61  0  0  1  0            999 V2000
  -14.6830  -32.5710  -16.1460 C   0  0  0  0  0  0
  -14.2980  -33.8210  -16.5770 C   0  0  0  0  0  0
  -15.0160  -32.3800  -14.8210 C   0  0  0  0  0  0
  -14.2420  -34.8820  -15.6860 C   0  0  0  0  0  0
  -14.9840  -33.4440  -13.9310 C   0  0  0  0  0  0
  -11.6620  -34.8970   -9.3320 C   0  0  0  0  0  0
  -14.2380  -34.1200   -8.6720 C   0  0  0  0  0  0
  -14.2300  -41.4300  -10.3090 C   0  0  0  0  0  0
  -16.3870  -42.1720  -11.0800 C   0  0  0  0  0  0
  -14.6950  -43.6200   -8.1840 C   0  0  0  0  0  0
  -15.6090  -44.7930   -9.7320 C   0  0  0  0  0  0
  -15.4460  -40.1100  -11.9490 C   0  0  0  0  0  0
  -14.5810  -34.7070  -14.3500 C   0  0  0  0  0  0
  -11.9110  -34.3660   -8.0700 C   0  0  0  0  0  0
  -13.2230  -33.9720   -7.7320 C   0  0  0  0  0  0
  -12.6660  -35.0530  -10.2760 C   0  0  0  0  0  0
  -15.2600  -42.3690  -10.2840 C   0  0  0  0  0  0
  -13.9540  -34.6620   -9.9230 C   0  0  0  0  0  0
  -14.3300  -40.3280  -11.1400 C   0  0  0  0  0  0
  -16.4750  -41.0450  -11.8750 C   0  0  0  0  0  0
  -14.0300  -35.4560  -12.0210 C   0  0  0  0  0  0
  -15.4930  -38.9760  -12.9360 C   0  0  0  0  0  0
  -10.7970  -34.3050   -7.0600 C   0  0  0  0  0  0
  -13.5650  -33.5360   -6.3290 C   0  0  0  0  0  0
  -15.8950  -36.5880  -13.2760 C   0  0  0  0  0  0
  -14.5110  -35.8860  -13.3850 C   0  0  1  0  0  0
  -14.8180  -44.8290   -7.7190 N   0  0  0  0  0  0
  -15.3960  -45.5910   -8.7270 N   0  0  0  0  0  0
  -12.7450  -35.5250  -11.5820 N   0  0  0  0  0  0
  -15.1880  -43.5310   -9.4470 N   0  0  0  0  0  0
  -14.7580  -34.9290  -11.0130 N   0  3  0  0  0  0
  -15.7590  -37.7670  -12.4370 N   0  0  0  0  0  0
  -15.3250  -39.1800  -14.1370 O   0  0  0  0  0  0
  -12.9960  -39.2290  -11.2150 Cl  0  0  0  0  0  0
  -17.9450  -40.7660  -12.7510 Cl  0  0  0  0  0  0
  -14.7244  -31.7377  -16.8474 H   0  0  0  0  0  0
  -14.0361  -33.9771  -17.6235 H   0  0  0  0  0  0
  -15.3055  -31.3889  -14.4717 H   0  0  0  0  0  0
  -13.9284  -35.8648  -16.0378 H   0  0  0  0  0  0
  -15.2777  -33.2881  -12.8930 H   0  0  0  0  0  0
  -10.6463  -35.1997   -9.5865 H   0  0  0  0  0  0
  -15.2550  -33.8119   -8.4294 H   0  0  0  0  0  0
  -13.3513  -41.5630   -9.6779 H   0  0  0  0  0  0
  -17.1952  -42.9034  -11.0755 H   0  0  0  0  0  0
  -14.2548  -42.7887   -7.6333 H   0  0  0  0  0  0
  -16.0636  -45.0948  -10.6756 H   0  0  0  0  0  0
   -9.8623  -34.6536   -7.5235 H   0  0  0  0  0  0
  -11.0436  -34.9488   -6.2028 H   0  0  0  0  0  0
  -10.6709  -33.2680   -6.7154 H   0  0  0  0  0  0
  -14.6316  -33.2721   -6.2768 H   0  0  0  0  0  0
  -12.9569  -32.6601   -6.0588 H   0  0  0  0  0  0
  -13.3559  -34.3579   -5.6284 H   0  0  0  0  0  0
  -16.6233  -35.8952  -12.8292 H   0  0  0  0  0  0
  -16.2368  -36.8825  -14.2792 H   0  0  0  0  0  0
  -13.7593  -36.5867  -13.7774 H   0  0  0  0  0  0
  -15.8759  -37.6825  -11.3465 H   0  0  0  0  0  0
  -15.8346  -34.7074  -10.9698 H   0  0  0  0  0  0
  1  2  2  0  0  0
  1  3  1  0  0  0
  1 36  1  0  0  0
  2  4  1  0  0  0
  2 37  1  0  0  0
  3  5  2  0  0  0
  3 38  1  0  0  0
  4 13  2  0  0  0
  4 39  1  0  0  0
  5 13  1  0  0  0
  5 40  1  0  0  0
  6 14  2  0  0  0
  6 16  1  0  0  0
  6 41  1  0  0  0
  7 15  2  0  0  0
  7 18  1  0  0  0
  7 42  1  0  0  0
  8 17  2  0  0  0
  8 19  1  0  0  0
  8 43  1  0  0  0
  9 17  1  0  0  0
  9 20  2  0  0  0
  9 44  1  0  0  0
 10 27  2  0  0  0
 10 30  1  0  0  0
 10 45  1  0  0  0
 11 28  2  0  0  0
 11 30  1  0  0  0
 11 46  1  0  0  0
 12 19  2  0  0  0
 12 20  1  0  0  0
 12 22  1  0  0  0
 13 26  1  0  0  0
 14 15  1  0  0  0
 14 23  1  0  0  0
 15 24  1  0  0  0
 16 18  2  0  0  0
 16 29  1  0  0  0
 17 30  1  0  0  0
 18 31  1  0  0  0
 19 34  1  0  0  0
 20 35  1  0  0  0
 21 26  1  0  0  0
 21 29  2  0  0  0
 21 31  1  0  0  0
 22 32  1  0  0  0
 22 33  2  0  0  0
 23 47  1  0  0  0
 23 48  1  0  0  0
 23 49  1  0  0  0
 24 50  1  0  0  0
 24 51  1  0  0  0
 24 52  1  0  0  0
 25 26  1  0  0  0
 25 32  1  0  0  0
 25 53  1  0  0  0
 25 54  1  0  0  0
 26 55  1  0  0  0
 27 28  1  0  0  0
 31 57  1  0  0  0
 32 56  1  0  0  0
M  CHG  1  31   1
M  END
> <s_m_source_file>
../4zae_ligand.sdf

> <i_m_source_file_index>
1

> <s_epik_input>
W2NIXTFjKFtDSDNdKWMoW0NIM10pW2NIXWMoYzEyKVtuSF1jKG4yKVtDQEhdKGMzW2NIXVtjSF1bY0hdW2NIXVtjSF0zKVtDSDJdW05IXUMoPU8pYzRjKENsKVtjSF1jKFtjSF1jNENsKS1uNVtjSF1ubltjSF01

> <s_epik_cmdline>
J2VwaWtfYXBwJywgJy1pbWFlJywgJ2xpZ2FuZF9wcm8ubWFlJywgJy1vbWFlJywgJ2xpZ2FuZF9wcmVwLm1hZScsICctbXMnLCAnMScsICctcGgnLCAnNycsICctcGh0JywgJzAuNScsICctbnQn

> <r_epik_Ionization_Penalty>
  0.0000

> <r_epik_Ionization_Penalty_Charging>
  0.0000

> <r_epik_Ionization_Penalty_Neutral>
  0.0000

> <r_epik_State_Penalty>
  0.0000

> <r_epik_Charging_Adjusted_Penalty>
2.71716201676603e-05

> <i_epik_Tot_Q>
1

> <i_epik_Tot_abs_Q>
1

> <s_epik_Chemistry_Notes>
This compound has an imine and may undergo hydrolysis.

$$$$
