4zb6_ligand
                    3D
 Schrodinger Suite 2020-3.
 70 69  0  0  1  0            999 V2000
   25.0480   -4.1520   12.9860 N   0  3  0  0  0  0
   23.8700   -3.4370   12.4330 C   0  0  2  0  0  0
   22.6210   -3.6800   13.2840 C   0  0  0  0  0  0
   21.7480   -2.7650   13.2600 O   0  5  0  0  0  0
   22.5490   -4.7100   13.9490 O   0  0  0  0  0  0
   23.6100   -3.8950   10.9710 C   0  0  0  0  0  0
   22.5700   -2.9880   10.3290 C   0  0  0  0  0  0
   23.1490   -1.6000   10.1010 C   0  0  0  0  0  0
   24.3540   -1.3560   10.0230 O   0  0  0  0  0  0
   22.2160   -0.5880    9.9760 N   0  0  0  0  0  0
   22.6590    0.7740    9.7400 C   0  0  2  0  0  0
   22.1120    1.7250   10.7820 C   0  0  0  0  0  0
   21.0300    1.4870   11.3460 O   0  0  0  0  0  0
   22.1320    1.2720    8.3990 C   0  0  0  0  0  0
   23.0500    0.4150    7.1070 S   0  0  0  0  0  0
   22.8270    2.8360   11.0220 N   0  0  0  0  0  0
   22.3230    3.7920   11.9660 C   0  0  0  0  0  0
   22.6700    5.1680   11.4420 C   0  0  0  0  0  0
   22.6710    6.0820   12.3110 O   0  5  0  0  0  0
   22.9140    5.2920   10.2450 O   0  0  0  0  0  0
   27.0200   -1.4910    9.2970 N   0  0  0  0  0  0
   27.9840   -2.5750    9.5540 C   0  0  0  0  0  0
   27.6750   -3.3060   10.8510 C   0  0  0  0  0  0
   27.0100   -2.6510   11.7040 O   0  5  0  0  0  0
   28.0820   -4.4540   10.9820 O   0  0  0  0  0  0
   27.4840   -0.3060    8.8210 C   0  0  0  0  0  0
   28.6940   -0.1010    8.6090 O   0  0  0  0  0  0
   26.4870    0.8140    8.5510 C   0  0  1  0  0  0
   27.1430    2.1010    8.9070 N   0  0  0  0  0  0
   26.1040    0.6830    7.0780 C   0  0  0  0  0  0
   24.6200    1.6680    6.7270 S   0  0  0  0  0  0
   27.4830    6.0410   11.9460 C   0  0  1  0  0  0
   27.8560    7.0560   10.8690 C   0  0  0  0  0  0
   27.0070    7.9620   10.6470 O   0  5  0  0  0  0
   28.9490    6.9530   10.3160 O   0  0  0  0  0  0
   26.7990    6.7050   13.0910 N   0  3  0  0  0  0
   26.5670    4.9520   11.3220 C   0  0  0  0  0  0
   27.3790    4.1630   10.2930 C   0  0  0  0  0  0
   26.6430    2.8710    9.9650 C   0  0  0  0  0  0
   25.6440    2.4810   10.5720 O   0  0  0  0  0  0
   25.2248   -3.8221   14.0204 H   0  0  0  0  0  0
   25.9337   -3.9281   12.3732 H   0  0  0  0  0  0
   24.8582   -5.2354   12.9740 H   0  0  0  0  0  0
   24.1202   -2.3667   12.4768 H   0  0  0  0  0  0
   24.5470   -3.8399   10.3974 H   0  0  0  0  0  0
   23.2408   -4.9312   10.9715 H   0  0  0  0  0  0
   22.2610   -3.4115    9.3620 H   0  0  0  0  0  0
   21.6949   -2.9079   10.9906 H   0  0  0  0  0  0
   21.1417   -0.8111   10.0546 H   0  0  0  0  0  0
   23.7563    0.7111    9.7856 H   0  0  0  0  0  0
   21.0578    1.0482    8.3212 H   0  0  0  0  0  0
   22.2864    2.3586    8.3250 H   0  0  0  0  0  0
   23.7830    3.0201   10.5099 H   0  0  0  0  0  0
   21.2328    3.6774   12.0573 H   0  0  0  0  0  0
   22.7929    3.6224   12.9460 H   0  0  0  0  0  0
   25.9489   -1.6501    9.4906 H   0  0  0  0  0  0
   27.9467   -3.3020    8.7293 H   0  0  0  0  0  0
   28.9979   -2.1545    9.6265 H   0  0  0  0  0  0
   25.5721    0.7881    9.1612 H   0  0  0  0  0  0
   28.0196    2.4469    8.3396 H   0  0  0  0  0  0
   26.9324    1.0433    6.4503 H   0  0  0  0  0  0
   25.8994   -0.3723    6.8448 H   0  0  0  0  0  0
   28.4008    5.5997   12.3619 H   0  0  0  0  0  0
   27.4615    7.4716   13.5193 H   0  0  0  0  0  0
   26.5601    5.9556   13.8600 H   0  0  0  0  0  0
   25.8704    7.1781   12.7390 H   0  0  0  0  0  0
   26.2082    4.2773   12.1132 H   0  0  0  0  0  0
   25.7073    5.4326   10.8322 H   0  0  0  0  0  0
   27.4970    4.7646    9.3797 H   0  0  0  0  0  0
   28.3702    3.9297   10.7089 H   0  0  0  0  0  0
  1  2  1  0  0  0
  1 41  1  0  0  0
  1 42  1  0  0  0
  1 43  1  0  0  0
  2  3  1  0  0  0
  2  6  1  0  0  0
  2 44  1  0  0  0
  3  4  1  0  0  0
  3  5  2  0  0  0
  6  7  1  0  0  0
  6 45  1  0  0  0
  6 46  1  0  0  0
  7  8  1  0  0  0
  7 47  1  0  0  0
  7 48  1  0  0  0
  8  9  2  0  0  0
  8 10  1  0  0  0
 10 11  1  0  0  0
 10 49  1  0  0  0
 11 12  1  0  0  0
 11 14  1  0  0  0
 11 50  1  0  0  0
 12 13  2  0  0  0
 12 16  1  0  0  0
 14 15  1  0  0  0
 14 51  1  0  0  0
 14 52  1  0  0  0
 15 31  1  0  0  0
 16 17  1  0  0  0
 16 53  1  0  0  0
 17 18  1  0  0  0
 17 54  1  0  0  0
 17 55  1  0  0  0
 18 19  1  0  0  0
 18 20  2  0  0  0
 21 22  1  0  0  0
 21 26  1  0  0  0
 21 56  1  0  0  0
 22 23  1  0  0  0
 22 57  1  0  0  0
 22 58  1  0  0  0
 23 24  1  0  0  0
 23 25  2  0  0  0
 26 27  2  0  0  0
 26 28  1  0  0  0
 28 29  1  0  0  0
 28 30  1  0  0  0
 28 59  1  0  0  0
 29 39  1  0  0  0
 29 60  1  0  0  0
 30 31  1  0  0  0
 30 61  1  0  0  0
 30 62  1  0  0  0
 32 33  1  0  0  0
 32 36  1  0  0  0
 32 37  1  0  0  0
 32 63  1  0  0  0
 33 34  1  0  0  0
 33 35  2  0  0  0
 36 64  1  0  0  0
 36 65  1  0  0  0
 36 66  1  0  0  0
 37 38  1  0  0  0
 37 67  1  0  0  0
 37 68  1  0  0  0
 38 39  1  0  0  0
 38 69  1  0  0  0
 38 70  1  0  0  0
 39 40  2  0  0  0
M  CHG  6   1   1   4  -1  19  -1  24  -1  34  -1  36   1
M  END
> <s_m_source_file>
../4zb6_ligand.sdf

> <i_m_source_file_index>
1

> <s_epik_input>
W09IXUMoPU8pW0NAQEhdKFtOSDMrXSlbQ0gyXVtDSDJdQyg9TylbTkhdW0NASF0oQyg9TylbTkhdW0NIMl1DKD1PKVtPSF0pW0NIMl1TU1tDSDJdW0NAQEhdKEMoPU8pW05IXVtDSDJdQyg9TylbT0hdKVtOSF1DKD1PKVtDSDJdW0NIMl1bQ0BIXShbTkgzK10pQyg9TylbT0hd

> <s_epik_cmdline>
J2VwaWtfYXBwJywgJy1pbWFlJywgJ2xpZ2FuZF9wcm8ubWFlJywgJy1vbWFlJywgJ2xpZ2FuZF9wcmVwLm1hZScsICctbXMnLCAnMScsICctcGgnLCAnNycsICctcGh0JywgJzAuNScsICctbnQn

> <r_lp_tautomer_probability>
1

> <r_epik_Ionization_Penalty>
  0.0051

> <r_epik_Ionization_Penalty_Charging>
  0.0051

> <r_epik_Ionization_Penalty_Neutral>
  0.0000

> <r_epik_State_Penalty>
 -0.0000

> <r_epik_Charging_Adjusted_Penalty>
0.00506422036912003

> <i_epik_Tot_Q>
-2

> <i_epik_Tot_abs_Q>
6

$$$$
