4zb8_ligand
                    3D
 Schrodinger Suite 2020-3.
 70 69  0  0  1  0            999 V2000
  -10.5320    4.5070   -3.7610 N   0  3  0  0  0  0
  -10.5950    5.5150   -4.7970 C   0  0  2  0  0  0
  -11.7030    5.1920   -5.7640 C   0  0  0  0  0  0
  -11.8660    4.0090   -6.1010 O   0  5  0  0  0  0
  -12.4060    6.1150   -6.2000 O   0  0  0  0  0  0
   -9.2630    5.5710   -5.5470 C   0  0  0  0  0  0
   -9.0960    6.8910   -6.2860 C   0  0  0  0  0  0
   -7.8060    6.9250   -7.0800 C   0  0  0  0  0  0
   -6.8490    6.2610   -6.7360 O   0  0  0  0  0  0
   -7.7930    7.7130   -8.1510 N   0  0  0  0  0  0
   -6.5720    8.0640   -8.8520 C   0  0  2  0  0  0
   -6.1710    9.4970   -8.6290 C   0  0  0  0  0  0
   -7.0000   10.3860   -8.6030 O   0  0  0  0  0  0
   -6.7300    7.8020  -10.3490 C   0  0  0  0  0  0
   -6.5230    6.0890  -10.6970 S   0  0  0  0  0  0
   -4.8760    9.7330   -8.4670 N   0  0  0  0  0  0
   -4.3900   11.0570   -8.1360 C   0  0  0  0  0  0
   -3.5610   11.0720   -6.8740 C   0  0  0  0  0  0
   -2.5560   11.8070   -6.8310 O   0  5  0  0  0  0
   -3.9130   10.3430   -5.9280 O   0  0  0  0  0  0
   -5.1130    4.0490   -6.3280 N   0  0  0  0  0  0
   -5.3970    2.9930   -5.3810 C   0  0  0  0  0  0
   -6.7390    2.3320   -5.6110 C   0  0  0  0  0  0
   -7.2050    2.2650   -6.7670 O   0  5  0  0  0  0
   -7.3260    1.8730   -4.6200 O   0  0  0  0  0  0
   -3.9710    4.1060   -7.0040 C   0  0  0  0  0  0
   -3.0530    3.3380   -6.8080 O   0  0  0  0  0  0
   -3.8530    5.1750   -8.0610 C   0  0  1  0  0  0
   -2.4990    5.6800   -8.1520 N   0  0  0  0  0  0
   -4.3160    4.6200   -9.4090 C   0  0  0  0  0  0
   -4.5110    5.8810  -10.6330 S   0  0  0  0  0  0
   -0.7240    8.6650   -5.8630 C   0  0  1  0  0  0
    0.2660    7.8140   -5.1160 C   0  0  0  0  0  0
    1.2660    8.3590   -4.6010 O   0  5  0  0  0  0
    0.0500    6.5930   -5.0440 O   0  0  0  0  0  0
   -0.6400   10.0270   -5.3810 N   0  3  0  0  0  0
   -0.4290    8.6430   -7.3600 C   0  0  0  0  0  0
   -0.7070    7.2920   -8.0100 C   0  0  0  0  0  0
   -2.1840    6.9630   -7.9960 C   0  0  0  0  0  0
   -3.0110    7.8400   -7.8490 O   0  0  0  0  0  0
  -11.4921    4.4713   -3.2253 H   0  0  0  0  0  0
   -9.7270    4.7573   -3.0544 H   0  0  0  0  0  0
  -10.3291    3.5261   -4.2157 H   0  0  0  0  0  0
  -10.8092    6.4667   -4.2887 H   0  0  0  0  0  0
   -8.4345    5.4648   -4.8313 H   0  0  0  0  0  0
   -9.2207    4.7527   -6.2809 H   0  0  0  0  0  0
   -9.9363    7.0304   -6.9820 H   0  0  0  0  0  0
   -9.0796    7.7178   -5.5607 H   0  0  0  0  0  0
   -8.7600    8.1029   -8.5016 H   0  0  0  0  0  0
   -5.8030    7.4193   -8.4015 H   0  0  0  0  0  0
   -7.7340    8.1145  -10.6719 H   0  0  0  0  0  0
   -5.9718    8.3745  -10.9035 H   0  0  0  0  0  0
   -4.1666    8.9012   -8.5885 H   0  0  0  0  0  0
   -3.7621   11.4330   -8.9572 H   0  0  0  0  0  0
   -5.2438   11.7345   -7.9875 H   0  0  0  0  0  0
   -5.8553    4.8406   -6.5081 H   0  0  0  0  0  0
   -4.6248    2.2135   -5.4586 H   0  0  0  0  0  0
   -5.4001    3.4059   -4.3614 H   0  0  0  0  0  0
   -4.4549    6.0463   -7.7635 H   0  0  0  0  0  0
   -1.6676    4.9904   -8.3598 H   0  0  0  0  0  0
   -3.5745    3.8986   -9.7827 H   0  0  0  0  0  0
   -5.2864    4.1172   -9.2847 H   0  0  0  0  0  0
   -1.7427    8.3011   -5.6636 H   0  0  0  0  0  0
   -0.8520   10.0477   -4.3018 H   0  0  0  0  0  0
   -1.3756   10.6496   -5.9113 H   0  0  0  0  0  0
    0.3715   10.4188   -5.5636 H   0  0  0  0  0  0
   -1.0560    9.3903   -7.8683 H   0  0  0  0  0  0
    0.6321    8.8793   -7.5282 H   0  0  0  0  0  0
   -0.3645    7.3106   -9.0551 H   0  0  0  0  0  0
   -0.1697    6.5039   -7.4620 H   0  0  0  0  0  0
  1  2  1  0  0  0
  1 41  1  0  0  0
  1 42  1  0  0  0
  1 43  1  0  0  0
  2  3  1  0  0  0
  2  6  1  0  0  0
  2 44  1  0  0  0
  3  4  1  0  0  0
  3  5  2  0  0  0
  6  7  1  0  0  0
  6 45  1  0  0  0
  6 46  1  0  0  0
  7  8  1  0  0  0
  7 47  1  0  0  0
  7 48  1  0  0  0
  8  9  2  0  0  0
  8 10  1  0  0  0
 10 11  1  0  0  0
 10 49  1  0  0  0
 11 12  1  0  0  0
 11 14  1  0  0  0
 11 50  1  0  0  0
 12 13  2  0  0  0
 12 16  1  0  0  0
 14 15  1  0  0  0
 14 51  1  0  0  0
 14 52  1  0  0  0
 15 31  1  0  0  0
 16 17  1  0  0  0
 16 53  1  0  0  0
 17 18  1  0  0  0
 17 54  1  0  0  0
 17 55  1  0  0  0
 18 19  1  0  0  0
 18 20  2  0  0  0
 21 22  1  0  0  0
 21 26  1  0  0  0
 21 56  1  0  0  0
 22 23  1  0  0  0
 22 57  1  0  0  0
 22 58  1  0  0  0
 23 24  1  0  0  0
 23 25  2  0  0  0
 26 27  2  0  0  0
 26 28  1  0  0  0
 28 29  1  0  0  0
 28 30  1  0  0  0
 28 59  1  0  0  0
 29 39  1  0  0  0
 29 60  1  0  0  0
 30 31  1  0  0  0
 30 61  1  0  0  0
 30 62  1  0  0  0
 32 33  1  0  0  0
 32 36  1  0  0  0
 32 37  1  0  0  0
 32 63  1  0  0  0
 33 34  1  0  0  0
 33 35  2  0  0  0
 36 64  1  0  0  0
 36 65  1  0  0  0
 36 66  1  0  0  0
 37 38  1  0  0  0
 37 67  1  0  0  0
 37 68  1  0  0  0
 38 39  1  0  0  0
 38 69  1  0  0  0
 38 70  1  0  0  0
 39 40  2  0  0  0
M  CHG  6   1   1   4  -1  19  -1  24  -1  34  -1  36   1
M  END
> <s_m_source_file>
../4zb8_ligand.sdf

> <i_m_source_file_index>
1

> <s_epik_input>
W09IXUMoPU8pW0NAQEhdKFtOSDMrXSlbQ0gyXVtDSDJdQyg9TylbTkhdW0NASF0oQyg9TylbTkhdW0NIMl1DKD1PKVtPSF0pW0NIMl1TU1tDSDJdW0NAQEhdKEMoPU8pW05IXVtDSDJdQyg9TylbT0hdKVtOSF1DKD1PKVtDSDJdW0NIMl1bQ0BIXShbTkgzK10pQyg9TylbT0hd

> <s_epik_cmdline>
J2VwaWtfYXBwJywgJy1pbWFlJywgJ2xpZ2FuZF9wcm8ubWFlJywgJy1vbWFlJywgJ2xpZ2FuZF9wcmVwLm1hZScsICctbXMnLCAnMScsICctcGgnLCAnNycsICctcGh0JywgJzAuNScsICctbnQn

> <r_lp_tautomer_probability>
1

> <r_epik_Ionization_Penalty>
  0.0051

> <r_epik_Ionization_Penalty_Charging>
  0.0051

> <r_epik_Ionization_Penalty_Neutral>
  0.0000

> <r_epik_State_Penalty>
 -0.0000

> <r_epik_Charging_Adjusted_Penalty>
0.00506422036912003

> <i_epik_Tot_Q>
-2

> <i_epik_Tot_abs_Q>
6

$$$$
