4zba_ligand
                    3D
 Schrodinger Suite 2020-3.
 70 69  0  0  1  0            999 V2000
   27.8950  108.1900   25.0110 N   0  3  0  0  0  0
   27.8360  106.9860   25.8680 C   0  0  2  0  0  0
   26.8020  107.1640   26.9840 C   0  0  0  0  0  0
   26.7450  108.3160   27.4920 O   0  5  0  0  0  0
   26.0930  106.2130   27.3100 O   0  0  0  0  0  0
   29.2480  106.7300   26.4620 C   0  0  0  0  0  0
   29.2890  105.3420   27.0980 C   0  0  0  0  0  0
   30.6990  105.0180   27.5500 C   0  0  0  0  0  0
   31.6540  105.7950   27.4460 O   0  0  0  0  0  0
   30.8540  103.7680   28.0990 N   0  0  0  0  0  0
   32.1450  103.2890   28.6190 C   0  0  2  0  0  0
   32.4720  101.9450   28.0160 C   0  0  0  0  0  0
   31.6140  101.0590   27.9780 O   0  0  0  0  0  0
   31.9590  103.1510   30.1790 C   0  0  0  0  0  0
   33.4420  102.2920   30.8860 S   0  0  0  0  0  0
   33.7210  101.7560   27.5570 N   0  0  0  0  0  0
   34.0770  100.4300   27.0490 C   0  0  0  0  0  0
   34.3830  100.3370   25.5830 C   0  0  0  0  0  0
   34.3530  101.4170   24.9270 O   0  5  0  0  0  0
   34.6400   99.2240   25.1430 O   0  0  0  0  0  0
   37.6090  104.7930   27.7190 N   0  0  0  0  0  0
   37.8590  105.2260   26.3280 C   0  0  0  0  0  0
   37.0880  106.4740   25.8970 C   0  0  0  0  0  0
   36.3180  107.0060   26.7480 O   0  5  0  0  0  0
   37.2710  106.8700   24.7490 O   0  0  0  0  0  0
   36.5310  104.0110   28.0050 C   0  0  0  0  0  0
   35.6940  103.6990   27.1500 O   0  0  0  0  0  0
   36.2820  103.5340   29.4480 C   0  0  1  0  0  0
   37.5170  103.2240   30.2020 N   0  0  0  0  0  0
   35.4390  104.5610   30.1720 C   0  0  0  0  0  0
   34.6410  103.7930   31.6350 S   0  0  0  0  0  0
   40.5170  100.0150   32.0810 C   0  0  1  0  0  0
   40.1870   98.9250   33.0900 C   0  0  0  0  0  0
   39.3090   99.2100   33.9510 O   0  5  0  0  0  0
   40.7940   97.8580   33.0120 O   0  0  0  0  0  0
   41.4970   99.5470   31.0760 N   0  3  0  0  0  0
   39.2070  100.4370   31.4040 C   0  0  0  0  0  0
   39.4590  101.7860   30.6890 C   0  0  0  0  0  0
   38.2400  102.0860   29.8680 C   0  0  0  0  0  0
   37.8700  101.3780   28.9300 O   0  0  0  0  0  0
   26.9006  108.3842   24.5826 H   0  0  0  0  0  0
   28.6187  108.0268   24.1988 H   0  0  0  0  0  0
   28.2095  109.0544   25.6143 H   0  0  0  0  0  0
   27.5109  106.1484   25.2334 H   0  0  0  0  0  0
   29.9991  106.7883   25.6604 H   0  0  0  0  0  0
   29.4676  107.4901   27.2262 H   0  0  0  0  0  0
   28.6163  105.3173   27.9680 H   0  0  0  0  0  0
   28.9643  104.5917   26.3620 H   0  0  0  0  0  0
   29.9682  103.1172   28.1419 H   0  0  0  0  0  0
   32.9420  103.9841   28.3162 H   0  0  0  0  0  0
   31.8598  104.1510   30.6263 H   0  0  0  0  0  0
   31.0531  102.5636   30.3897 H   0  0  0  0  0  0
   34.4674  102.5641   27.5558 H   0  0  0  0  0  0
   34.9766  100.0678   27.5682 H   0  0  0  0  0  0
   33.2449   99.7332   27.2280 H   0  0  0  0  0  0
   38.2934  105.1023   28.5227 H   0  0  0  0  0  0
   38.9277  105.4539   26.2014 H   0  0  0  0  0  0
   37.5714  104.4208   25.6360 H   0  0  0  0  0  0
   35.7619  102.5652   29.4196 H   0  0  0  0  0  0
   37.8487  103.8902   31.0120 H   0  0  0  0  0  0
   36.0782  105.3932   30.5020 H   0  0  0  0  0  0
   34.6622  104.9423   29.4929 H   0  0  0  0  0  0
   41.0088  100.8615   32.5825 H   0  0  0  0  0  0
   42.4275   99.2498   31.5819 H   0  0  0  0  0  0
   41.7094  100.3591   30.3651 H   0  0  0  0  0  0
   41.0826   98.6842   30.5339 H   0  0  0  0  0  0
   38.9065   99.6690   30.6761 H   0  0  0  0  0  0
   38.4205  100.5488   32.1649 H   0  0  0  0  0  0
   39.6242  102.5733   31.4392 H   0  0  0  0  0  0
   40.3474  101.6999   30.0461 H   0  0  0  0  0  0
  1  2  1  0  0  0
  1 41  1  0  0  0
  1 42  1  0  0  0
  1 43  1  0  0  0
  2  3  1  0  0  0
  2  6  1  0  0  0
  2 44  1  0  0  0
  3  4  1  0  0  0
  3  5  2  0  0  0
  6  7  1  0  0  0
  6 45  1  0  0  0
  6 46  1  0  0  0
  7  8  1  0  0  0
  7 47  1  0  0  0
  7 48  1  0  0  0
  8  9  2  0  0  0
  8 10  1  0  0  0
 10 11  1  0  0  0
 10 49  1  0  0  0
 11 12  1  0  0  0
 11 14  1  0  0  0
 11 50  1  0  0  0
 12 13  2  0  0  0
 12 16  1  0  0  0
 14 15  1  0  0  0
 14 51  1  0  0  0
 14 52  1  0  0  0
 15 31  1  0  0  0
 16 17  1  0  0  0
 16 53  1  0  0  0
 17 18  1  0  0  0
 17 54  1  0  0  0
 17 55  1  0  0  0
 18 19  1  0  0  0
 18 20  2  0  0  0
 21 22  1  0  0  0
 21 26  1  0  0  0
 21 56  1  0  0  0
 22 23  1  0  0  0
 22 57  1  0  0  0
 22 58  1  0  0  0
 23 24  1  0  0  0
 23 25  2  0  0  0
 26 27  2  0  0  0
 26 28  1  0  0  0
 28 29  1  0  0  0
 28 30  1  0  0  0
 28 59  1  0  0  0
 29 39  1  0  0  0
 29 60  1  0  0  0
 30 31  1  0  0  0
 30 61  1  0  0  0
 30 62  1  0  0  0
 32 33  1  0  0  0
 32 36  1  0  0  0
 32 37  1  0  0  0
 32 63  1  0  0  0
 33 34  1  0  0  0
 33 35  2  0  0  0
 36 64  1  0  0  0
 36 65  1  0  0  0
 36 66  1  0  0  0
 37 38  1  0  0  0
 37 67  1  0  0  0
 37 68  1  0  0  0
 38 39  1  0  0  0
 38 69  1  0  0  0
 38 70  1  0  0  0
 39 40  2  0  0  0
M  CHG  6   1   1   4  -1  19  -1  24  -1  34  -1  36   1
M  END
> <s_m_source_file>
../4zba_ligand.sdf

> <i_m_source_file_index>
1

> <s_epik_input>
W09IXUMoPU8pW0NAQEhdKFtOSDMrXSlbQ0gyXVtDSDJdQyg9TylbTkhdW0NASF0oQyg9TylbTkhdW0NIMl1DKD1PKVtPSF0pW0NIMl1TU1tDSDJdW0NAQEhdKEMoPU8pW05IXVtDSDJdQyg9TylbT0hdKVtOSF1DKD1PKVtDSDJdW0NIMl1bQ0BIXShbTkgzK10pQyg9TylbT0hd

> <s_epik_cmdline>
J2VwaWtfYXBwJywgJy1pbWFlJywgJ2xpZ2FuZF9wcm8ubWFlJywgJy1vbWFlJywgJ2xpZ2FuZF9wcmVwLm1hZScsICctbXMnLCAnMScsICctcGgnLCAnNycsICctcGh0JywgJzAuNScsICctbnQn

> <r_lp_tautomer_probability>
1

> <r_epik_Ionization_Penalty>
  0.0051

> <r_epik_Ionization_Penalty_Charging>
  0.0051

> <r_epik_Ionization_Penalty_Neutral>
  0.0000

> <r_epik_State_Penalty>
 -0.0000

> <r_epik_Charging_Adjusted_Penalty>
0.00506422036912003

> <i_epik_Tot_Q>
-2

> <i_epik_Tot_abs_Q>
6

$$$$
