4zbf_ligand
                    3D
 Schrodinger Suite 2020-3.
 54 58  0  0  1  0            999 V2000
  -34.2580   26.4610   -0.6420 O   0  5  0  0  0  0
  -33.3250   27.2980   -0.7630 C   0  0  0  0  0  0
  -33.4800   28.2590   -1.5580 O   0  0  0  0  0  0
  -32.0320   27.1420   -0.0080 C   0  0  0  0  0  0
  -31.3710   28.1220    0.7120 N   0  0  0  0  0  0
  -30.2110   27.6150    1.2460 C   0  0  0  0  0  0
  -31.7930   29.5110    0.9200 C   0  0  0  0  0  0
  -30.8280   30.5100    0.3320 C   0  0  0  0  0  0
  -29.7920   31.0370    1.2850 C   0  0  0  0  0  0
  -29.3140   29.9140    2.5590 S   0  0  1  0  0  0
  -30.3310   30.0430    3.6430 O   0  0  0  0  0  0
  -29.2090   28.1800    2.0390 C   0  0  0  0  0  0
  -28.1000   27.4190    2.4550 C   0  0  0  0  0  0
  -28.0050   26.0600    2.0640 C   0  0  0  0  0  0
  -29.0040   25.4850    1.2640 C   0  0  0  0  0  0
  -30.0990   26.2540    0.8560 C   0  0  0  0  0  0
  -31.2610   25.9710    0.0540 C   0  0  0  0  0  0
  -31.6150   24.6500   -0.5820 C   0  0  0  0  0  0
  -32.6470   23.8710    0.2110 C   0  0  0  0  0  0
  -32.1860   23.3960    1.5560 C   0  0  0  0  0  0
  -31.0050   22.6920    1.4740 O   0  0  0  0  0  0
  -30.4380   22.0830    2.5770 C   0  0  0  0  0  0
  -29.4140   21.1490    2.3440 C   0  0  0  0  0  0
  -29.0280   20.8480    1.0040 C   0  0  0  0  0  0
  -28.0160   19.9270    0.7820 C   0  0  0  0  0  0
  -27.3920   19.3050    1.8630 C   0  0  0  0  0  0
  -27.7830   19.5890    3.1730 C   0  0  0  0  0  0
  -28.8010   20.5350    3.4100 C   0  0  0  0  0  0
  -29.1940   20.8480    4.7300 C   0  0  0  0  0  0
  -30.2140   21.7740    4.9540 C   0  0  0  0  0  0
  -30.8410   22.4020    3.8660 C   0  0  0  0  0  0
  -32.7726   29.6715    0.4461 H   0  0  0  0  0  0
  -31.8699   29.7133    1.9985 H   0  0  0  0  0  0
  -30.2797   30.0441   -0.5000 H   0  0  0  0  0  0
  -31.3848   31.3831   -0.0391 H   0  0  0  0  0  0
  -28.8777   31.2912    0.7288 H   0  0  0  0  0  0
  -30.1785   31.9368    1.7859 H   0  0  0  0  0  0
  -30.5370   31.0269    4.0897 H   0  0  0  0  0  0
  -27.3225   27.8703    3.0714 H   0  0  0  0  0  0
  -27.1537   25.4600    2.3856 H   0  0  0  0  0  0
  -28.9270   24.4408    0.9609 H   0  0  0  0  0  0
  -32.0270   24.8255   -1.5867 H   0  0  0  0  0  0
  -30.7119   24.0268   -0.6598 H   0  0  0  0  0  0
  -33.5294   24.5041    0.3859 H   0  0  0  0  0  0
  -32.9445   22.9755   -0.3544 H   0  0  0  0  0  0
  -32.0263   24.2617    2.2156 H   0  0  0  0  0  0
  -32.9504   22.7373    1.9941 H   0  0  0  0  0  0
  -29.5230   21.3364    0.1646 H   0  0  0  0  0  0
  -27.7083   19.6893   -0.2363 H   0  0  0  0  0  0
  -26.5900   18.5891    1.6832 H   0  0  0  0  0  0
  -27.3028   19.0811    4.0094 H   0  0  0  0  0  0
  -28.7005   20.3662    5.5741 H   0  0  0  0  0  0
  -30.5234   22.0093    5.9723 H   0  0  0  0  0  0
  -31.6343   23.1309    4.0317 H   0  0  0  0  0  0
  1  2  1  0  0  0
  2  3  2  0  0  0
  2  4  1  0  0  0
  4  5  1  0  0  0
  4 17  2  0  0  0
  5  6  1  0  0  0
  5  7  1  0  0  0
  6 12  1  0  0  0
  6 16  2  0  0  0
  7  8  1  0  0  0
  7 32  1  0  0  0
  7 33  1  0  0  0
  8  9  1  0  0  0
  8 34  1  0  0  0
  8 35  1  0  0  0
  9 10  1  0  0  0
  9 36  1  0  0  0
  9 37  1  0  0  0
 10 11  1  0  0  0
 10 12  1  0  0  0
 11 38  1  0  0  0
 12 13  2  0  0  0
 13 14  1  0  0  0
 13 39  1  0  0  0
 14 15  2  0  0  0
 14 40  1  0  0  0
 15 16  1  0  0  0
 15 41  1  0  0  0
 16 17  1  0  0  0
 17 18  1  0  0  0
 18 19  1  0  0  0
 18 42  1  0  0  0
 18 43  1  0  0  0
 19 20  1  0  0  0
 19 44  1  0  0  0
 19 45  1  0  0  0
 20 21  1  0  0  0
 20 46  1  0  0  0
 20 47  1  0  0  0
 21 22  1  0  0  0
 22 23  2  0  0  0
 22 31  1  0  0  0
 23 24  1  0  0  0
 23 28  1  0  0  0
 24 25  2  0  0  0
 24 48  1  0  0  0
 25 26  1  0  0  0
 25 49  1  0  0  0
 26 27  2  0  0  0
 26 50  1  0  0  0
 27 28  1  0  0  0
 27 51  1  0  0  0
 28 29  2  0  0  0
 29 30  1  0  0  0
 29 52  1  0  0  0
 30 31  2  0  0  0
 30 53  1  0  0  0
 31 54  1  0  0  0
M  CHG  1   1  -1
M  END
> <s_m_source_file>
../4zbf_ligand.sdf

> <i_m_source_file_index>
1

> <s_epik_input>
W0NIMl0xW0NIMl1bQ0gyXVtTQEBIXShbT0hdKWMoYzJuMTMpW2NIXVtjSF1bY0hdYzJjKGMzQyg9TylbT0hdKVtDSDJdW0NIMl1bQ0gyXU9jNFtjSF1bY0hdW2NIXWMoYzQ1KVtjSF1bY0hdW2NIXVtjSF01

> <s_epik_cmdline>
J2VwaWtfYXBwJywgJy1pbWFlJywgJ2xpZ2FuZF9wcm8ubWFlJywgJy1vbWFlJywgJ2xpZ2FuZF9wcmVwLm1hZScsICctbXMnLCAnMScsICctcGgnLCAnNycsICctcGh0JywgJzAuNScsICctbnQn

> <r_epik_Ionization_Penalty>
  0.0227

> <r_epik_Ionization_Penalty_Charging>
  0.0227

> <r_epik_Ionization_Penalty_Neutral>
  0.0000

> <r_epik_State_Penalty>
  0.0183

> <r_epik_Charging_Adjusted_Penalty>
0.041010854952573

> <i_epik_Tot_Q>
-1

> <i_epik_Tot_abs_Q>
1

$$$$
