4zdu_ligand
                    3D
 Schrodinger Suite 2020-3.
196196  0  0  1  0            999 V2000
   26.7240   -3.9820  -19.8560 N   0  3  0  0  0  0
   27.2310   -3.7090  -18.5190 C   0  0  2  0  0  0
   27.6070   -2.2420  -18.3710 C   0  0  0  0  0  0
   27.4520   -1.4530  -19.3040 O   0  0  0  0  0  0
   28.4390   -4.5960  -18.2070 C   0  0  0  0  0  0
   29.4460   -4.4550  -19.1950 O   0  0  0  0  0  0
   28.1090   -1.8870  -17.1930 N   0  0  0  0  0  0
   28.4920   -0.5130  -16.9000 C   0  0  2  0  0  0
   29.5070   -0.4960  -15.7560 C   0  0  0  0  0  0
   29.6050   -1.4580  -14.9980 O   0  0  0  0  0  0
   27.2530    0.3170  -16.5560 C   0  0  0  0  0  0
   27.4560    1.8190  -16.6270 C   0  0  0  0  0  0
   26.1640    2.5890  -16.4430 C   0  0  0  0  0  0
   25.0770    2.0710  -16.7000 O   0  0  0  0  0  0
   26.2760    3.8330  -15.9940 N   0  0  0  0  0  0
   30.2660    0.5900  -15.6420 N   0  0  0  0  0  0
   31.3130    0.6940  -14.6400 C   0  0  0  0  0  0
   30.8130    0.7330  -13.2060 C   0  0  0  0  0  0
   29.6080    0.7240  -12.9550 O   0  0  0  0  0  0
   31.7510    0.7870  -12.2630 N   0  0  0  0  0  0
   31.4270    0.7330  -10.8390 C   0  0  2  0  0  0
   31.5940    2.0810  -10.1390 C   0  0  0  0  0  0
   32.6960    2.6230  -10.0650 O   0  0  0  0  0  0
   32.3010   -0.3020  -10.1040 C   0  0  2  0  0  0
   32.0520   -1.6090  -10.6330 O   0  0  0  0  0  0
   31.9900   -0.3000   -8.6060 C   0  0  0  0  0  0
   30.4940    2.6140   -9.6180 N   0  0  0  0  0  0
   30.5460    3.8140   -8.7880 C   0  0  2  0  0  0
   31.1890    3.4920   -7.4400 C   0  0  0  0  0  0
   30.8530    2.4890   -6.8170 O   0  0  0  0  0  0
   29.1420    4.3900   -8.5750 C   0  0  0  0  0  0
   28.4330    4.8110   -9.8510 C   0  0  0  0  0  0
   28.9950    6.1090  -10.3980 C   0  0  0  0  0  0
   28.1580    6.6060  -11.5630 C   0  0  0  0  0  0
   28.6020    7.9480  -12.0240 N   0  3  0  0  0  0
   32.1150    4.3380   -6.9980 N   0  0  0  0  0  0
   32.7650    4.1590   -5.7010 C   0  0  2  0  0  0
   32.6850    5.4390   -4.8770 C   0  0  0  0  0  0
   33.1890    6.4840   -5.2920 O   0  0  0  0  0  0
   34.2290    3.7410   -5.8730 C   0  0  0  0  0  0
   34.4300    2.3300   -6.4140 C   0  0  0  0  0  0
   35.9060    2.0450   -6.6850 C   0  0  0  0  0  0
   36.5120    3.0650   -7.5390 N   0  0  0  0  0  0
   37.5910    3.7760   -7.2190 C   0  0  0  0  0  0
   38.2000    3.5840   -6.0590 N   0  0  0  0  0  0
   38.0650    4.6820   -8.0650 N   0  0  0  0  0  0
   32.0480    5.3580   -3.7140 N   0  0  0  0  0  0
   31.9660    6.5070   -2.8230 C   0  0  2  0  0  0
   33.3430    6.8320   -2.2540 C   0  0  0  0  0  0
   34.2810    6.0420   -2.3770 O   0  0  0  0  0  0
   30.9740    6.2510   -1.6870 C   0  0  0  0  0  0
   31.4710    5.2700   -0.7950 O   0  0  0  0  0  0
   33.4540    7.9960   -1.6260 N   0  0  0  0  0  0
   34.7260    8.4500   -1.0830 C   0  0  2  0  0  0
   35.3310    7.4480   -0.0980 C   0  0  0  0  0  0
   36.5370    7.2020   -0.1140 O   0  0  0  0  0  0
   34.5590    9.8070   -0.4040 C   0  0  0  0  0  0
   35.8230   10.2730    0.2640 C   0  0  0  0  0  0
   36.8690   10.7880   -0.4840 C   0  0  0  0  0  0
   35.9800   10.1840    1.6410 C   0  0  0  0  0  0
   38.0330   11.2060    0.1160 C   0  0  0  0  0  0
   37.1430   10.6020    2.2510 C   0  0  0  0  0  0
   38.1660   11.1130    1.4820 C   0  0  0  0  0  0
   39.3290   11.5340    2.0790 O   0  0  0  0  0  0
   34.4900    6.8680    0.7520 N   0  0  0  0  0  0
   34.9530    5.8970    1.7370 C   0  0  2  0  0  0
   35.3400    4.5810    1.0650 C   0  0  0  0  0  0
   36.1950    3.8460    1.5630 O   0  0  0  0  0  0
   33.8800    5.6640    2.8050 C   0  0  0  0  0  0
   33.5480    6.9120    3.6130 C   0  0  0  0  0  0
   32.4680    6.6770    4.6520 C   0  0  0  0  0  0
   31.9920    7.6670    5.2460 O   0  0  0  0  0  0
   32.0980    5.5060    4.8810 O   0  0  0  0  0  0
   34.7140    4.2920   -0.0710 N   0  0  0  0  0  0
   35.0520    3.1010   -0.8420 C   0  0  2  0  0  0
   36.4000    3.2670   -1.5480 C   0  0  0  0  0  0
   37.0590    2.2810   -1.8740 O   0  0  0  0  0  0
   33.9520    2.7850   -1.8590 C   0  0  0  0  0  0
   32.6300    2.3480   -1.2410 C   0  0  0  0  0  0
   31.5520    2.0900   -2.2820 C   0  0  0  0  0  0
   31.1970    2.9770   -3.0600 O   0  0  0  0  0  0
   31.0190    0.8720   -2.2940 N   0  0  0  0  0  0
   36.8080    4.5140   -1.7800 N   0  0  0  0  0  0
   38.1100    4.7870   -2.3910 C   0  0  2  0  0  0
   39.2390    4.5700   -1.4060 C   0  0  0  0  0  0
   40.2470    3.9370   -1.7270 O   0  0  0  0  0  0
   38.2030    6.2210   -2.9220 C   0  0  0  0  0  0
   39.6600    6.6560   -3.1110 C   0  0  0  0  0  0
   39.9350    8.3230   -3.7060 S   0  0  0  0  0  0
   39.3880    9.2780   -2.3110 C   0  0  0  0  0  0
   39.0690    5.1240   -0.2110 N   0  0  0  0  0  0
   40.0610    5.0090    0.8510 C   0  0  2  0  0  0
   39.7820    3.7920    1.7250 C   0  0  0  0  0  0
   40.6250    2.9050    1.8600 O   0  0  0  0  0  0
   40.0780    6.2820    1.7010 C   0  0  0  0  0  0
   41.1720    7.2680    1.3220 C   0  0  0  0  0  0
   40.8670    8.6820    1.7730 C   0  0  0  0  0  0
   39.8930    8.8660    2.5340 O   0  0  0  0  0  0
   41.5990    9.6080    1.3650 O   0  0  0  0  0  0
   38.7080    3.6710    2.3140 O   0  0  0  0  0  0
   25.8579   -3.3349  -20.0589 H   0  0  0  0  0  0
   26.4179   -5.0364  -19.9238 H   0  0  0  0  0  0
   27.5131   -3.7810  -20.5955 H   0  0  0  0  0  0
   26.3981   -3.9464  -17.8408 H   0  0  0  0  0  0
   28.8611   -4.3110  -17.2320 H   0  0  0  0  0  0
   28.1224   -5.6490  -18.1758 H   0  0  0  0  0  0
   30.3809   -5.0288  -19.1132 H   0  0  0  0  0  0
   28.2322   -2.6674  -16.4276 H   0  0  0  0  0  0
   28.9556   -0.1105  -17.8127 H   0  0  0  0  0  0
   26.4416    0.0725  -17.2573 H   0  0  0  0  0  0
   26.9317    0.0879  -15.5292 H   0  0  0  0  0  0
   28.1526    2.1327  -15.8355 H   0  0  0  0  0  0
   27.8726    2.0867  -17.6093 H   0  0  0  0  0  0
   27.2697    4.2525  -15.7782 H   0  0  0  0  0  0
   25.3751    4.4445  -15.8376 H   0  0  0  0  0  0
   30.0825    1.4248  -16.3345 H   0  0  0  0  0  0
   31.9849   -0.1733  -14.7204 H   0  0  0  0  0  0
   31.8864    1.6184  -14.8034 H   0  0  0  0  0  0
   32.7989    0.8751  -12.5857 H   0  0  0  0  0  0
   30.3648    0.4474  -10.8476 H   0  0  0  0  0  0
   33.3684   -0.1010  -10.2782 H   0  0  0  0  0  0
   32.2187   -1.8109  -11.7014 H   0  0  0  0  0  0
   32.1795    0.7020   -8.1935 H   0  0  0  0  0  0
   32.6326   -1.0335   -8.0971 H   0  0  0  0  0  0
   30.9343   -0.5670   -8.4504 H   0  0  0  0  0  0
   29.5282    2.1297   -9.8248 H   0  0  0  0  0  0
   31.1646    4.5338   -9.3442 H   0  0  0  0  0  0
   28.5057    3.6351   -8.0899 H   0  0  0  0  0  0
   29.2050    5.2824   -7.9350 H   0  0  0  0  0  0
   28.5574    4.0291  -10.6146 H   0  0  0  0  0  0
   27.3621    4.9552   -9.6450 H   0  0  0  0  0  0
   28.9917    6.8725   -9.6061 H   0  0  0  0  0  0
   30.0259    5.9449  -10.7448 H   0  0  0  0  0  0
   28.2470    5.9032  -12.4046 H   0  0  0  0  0  0
   27.1046    6.6764  -11.2540 H   0  0  0  0  0  0
   27.9735    8.2728  -12.8663 H   0  0  0  0  0  0
   29.6517    7.8954  -12.3487 H   0  0  0  0  0  0
   28.5093    8.6686  -11.1981 H   0  0  0  0  0  0
   32.3883    5.1905   -7.6372 H   0  0  0  0  0  0
   32.1995    3.3570   -5.2041 H   0  0  0  0  0  0
   34.7252    4.4249   -6.5773 H   0  0  0  0  0  0
   34.7393    3.7836   -4.8995 H   0  0  0  0  0  0
   34.0617    1.5995   -5.6787 H   0  0  0  0  0  0
   33.8728    2.2154   -7.3555 H   0  0  0  0  0  0
   36.4560    2.0229   -5.7326 H   0  0  0  0  0  0
   36.0052    1.0720   -7.1883 H   0  0  0  0  0  0
   36.0744    3.2895   -8.5229 H   0  0  0  0  0  0
   37.8135    2.8350   -5.3522 H   0  0  0  0  0  0
   37.5649    4.8476   -9.0307 H   0  0  0  0  0  0
   38.9580    5.2674   -7.8006 H   0  0  0  0  0  0
   31.5785    4.4053   -3.4277 H   0  0  0  0  0  0
   31.6070    7.3373   -3.4488 H   0  0  0  0  0  0
   30.8065    7.1842   -1.1293 H   0  0  0  0  0  0
   30.0201    5.8979   -2.1058 H   0  0  0  0  0  0
   30.8755    4.9699    0.0798 H   0  0  0  0  0  0
   32.5559    8.6224   -1.5204 H   0  0  0  0  0  0
   35.3810    8.5277   -1.9633 H   0  0  0  0  0  0
   34.2738   10.5596   -1.1539 H   0  0  0  0  0  0
   33.7743    9.7387    0.3638 H   0  0  0  0  0  0
   36.7674   10.8631   -1.5667 H   0  0  0  0  0  0
   35.1713    9.7775    2.2484 H   0  0  0  0  0  0
   38.8463   11.6090   -0.4875 H   0  0  0  0  0  0
   37.2528   10.5290    3.3330 H   0  0  0  0  0  0
   40.1458   11.9419    1.4654 H   0  0  0  0  0  0
   33.4240    7.1346    0.7014 H   0  0  0  0  0  0
   35.8464    6.3464    2.1950 H   0  0  0  0  0  0
   32.9506    5.3260    2.3234 H   0  0  0  0  0  0
   34.2270    4.8960    3.5119 H   0  0  0  0  0  0
   34.4491    7.2575    4.1408 H   0  0  0  0  0  0
   33.1933    7.7034    2.9363 H   0  0  0  0  0  0
   31.3163    5.3128    5.6304 H   0  0  0  0  0  0
   33.9265    4.9725   -0.4270 H   0  0  0  0  0  0
   35.1220    2.2909   -0.1012 H   0  0  0  0  0  0
   33.7432    3.6801   -2.4632 H   0  0  0  0  0  0
   34.2842    1.9681   -2.5165 H   0  0  0  0  0  0
   32.7802    1.4174   -0.6740 H   0  0  0  0  0  0
   32.2637    3.1344   -0.5647 H   0  0  0  0  0  0
   31.3681    0.1118   -1.5797 H   0  0  0  0  0  0
   30.2289    0.6245   -3.0182 H   0  0  0  0  0  0
   36.1450    5.3469   -1.5028 H   0  0  0  0  0  0
   38.1717    4.0585   -3.2129 H   0  0  0  0  0  0
   37.6913    6.2861   -3.8935 H   0  0  0  0  0  0
   37.7242    6.9079   -2.2087 H   0  0  0  0  0  0
   40.1893    6.5926   -2.1488 H   0  0  0  0  0  0
   40.1481    5.9950   -3.8423 H   0  0  0  0  0  0
   39.4999   10.3494   -2.5336 H   0  0  0  0  0  0
   39.9948    9.0212   -1.4302 H   0  0  0  0  0  0
   38.3307    9.0546   -2.1056 H   0  0  0  0  0  0
   38.1393    5.6856   -0.0368 H   0  0  0  0  0  0
   41.0268    4.8773    0.3412 H   0  0  0  0  0  0
   40.4088    2.0327    2.4943 H   0  0  0  0  0  0
   39.1176    6.8075    1.5935 H   0  0  0  0  0  0
   40.2341    6.0159    2.7568 H   0  0  0  0  0  0
   42.1194    6.9622    1.7899 H   0  0  0  0  0  0
   41.2907    7.2815    0.2285 H   0  0  0  0  0  0
   39.6477    9.8817    2.8777 H   0  0  0  0  0  0
  1  2  1  0  0  0
  1101  1  0  0  0
  1102  1  0  0  0
  1103  1  0  0  0
  2  3  1  0  0  0
  2  5  1  0  0  0
  2104  1  0  0  0
  3  4  2  0  0  0
  3  7  1  0  0  0
  5  6  1  0  0  0
  5105  1  0  0  0
  5106  1  0  0  0
  6107  1  0  0  0
  7  8  1  0  0  0
  7108  1  0  0  0
  8  9  1  0  0  0
  8 11  1  0  0  0
  8109  1  0  0  0
  9 10  2  0  0  0
  9 16  1  0  0  0
 11 12  1  0  0  0
 11110  1  0  0  0
 11111  1  0  0  0
 12 13  1  0  0  0
 12112  1  0  0  0
 12113  1  0  0  0
 13 14  2  0  0  0
 13 15  1  0  0  0
 15114  1  0  0  0
 15115  1  0  0  0
 16 17  1  0  0  0
 16116  1  0  0  0
 17 18  1  0  0  0
 17117  1  0  0  0
 17118  1  0  0  0
 18 19  2  0  0  0
 18 20  1  0  0  0
 20 21  1  0  0  0
 20119  1  0  0  0
 21 22  1  0  0  0
 21 24  1  0  0  0
 21120  1  0  0  0
 22 23  2  0  0  0
 22 27  1  0  0  0
 24 25  1  0  0  0
 24 26  1  0  0  0
 24121  1  0  0  0
 25122  1  0  0  0
 26123  1  0  0  0
 26124  1  0  0  0
 26125  1  0  0  0
 27 28  1  0  0  0
 27126  1  0  0  0
 28 29  1  0  0  0
 28 31  1  0  0  0
 28127  1  0  0  0
 29 30  2  0  0  0
 29 36  1  0  0  0
 31 32  1  0  0  0
 31128  1  0  0  0
 31129  1  0  0  0
 32 33  1  0  0  0
 32130  1  0  0  0
 32131  1  0  0  0
 33 34  1  0  0  0
 33132  1  0  0  0
 33133  1  0  0  0
 34 35  1  0  0  0
 34134  1  0  0  0
 34135  1  0  0  0
 35136  1  0  0  0
 35137  1  0  0  0
 35138  1  0  0  0
 36 37  1  0  0  0
 36139  1  0  0  0
 37 38  1  0  0  0
 37 40  1  0  0  0
 37140  1  0  0  0
 38 39  2  0  0  0
 38 47  1  0  0  0
 40 41  1  0  0  0
 40141  1  0  0  0
 40142  1  0  0  0
 41 42  1  0  0  0
 41143  1  0  0  0
 41144  1  0  0  0
 42 43  1  0  0  0
 42145  1  0  0  0
 42146  1  0  0  0
 43 44  1  0  0  0
 43147  1  0  0  0
 44 45  2  0  0  0
 44 46  1  0  0  0
 45148  1  0  0  0
 46149  1  0  0  0
 46150  1  0  0  0
 47 48  1  0  0  0
 47151  1  0  0  0
 48 49  1  0  0  0
 48 51  1  0  0  0
 48152  1  0  0  0
 49 50  2  0  0  0
 49 53  1  0  0  0
 51 52  1  0  0  0
 51153  1  0  0  0
 51154  1  0  0  0
 52155  1  0  0  0
 53 54  1  0  0  0
 53156  1  0  0  0
 54 55  1  0  0  0
 54 57  1  0  0  0
 54157  1  0  0  0
 55 56  2  0  0  0
 55 65  1  0  0  0
 57 58  1  0  0  0
 57158  1  0  0  0
 57159  1  0  0  0
 58 59  2  0  0  0
 58 60  1  0  0  0
 59 61  1  0  0  0
 59160  1  0  0  0
 60 62  2  0  0  0
 60161  1  0  0  0
 61 63  2  0  0  0
 61162  1  0  0  0
 62 63  1  0  0  0
 62163  1  0  0  0
 63 64  1  0  0  0
 64164  1  0  0  0
 65 66  1  0  0  0
 65165  1  0  0  0
 66 67  1  0  0  0
 66 69  1  0  0  0
 66166  1  0  0  0
 67 68  2  0  0  0
 67 74  1  0  0  0
 69 70  1  0  0  0
 69167  1  0  0  0
 69168  1  0  0  0
 70 71  1  0  0  0
 70169  1  0  0  0
 70170  1  0  0  0
 71 72  2  0  0  0
 71 73  1  0  0  0
 73171  1  0  0  0
 74 75  1  0  0  0
 74172  1  0  0  0
 75 76  1  0  0  0
 75 78  1  0  0  0
 75173  1  0  0  0
 76 77  2  0  0  0
 76 83  1  0  0  0
 78 79  1  0  0  0
 78174  1  0  0  0
 78175  1  0  0  0
 79 80  1  0  0  0
 79176  1  0  0  0
 79177  1  0  0  0
 80 81  2  0  0  0
 80 82  1  0  0  0
 82178  1  0  0  0
 82179  1  0  0  0
 83 84  1  0  0  0
 83180  1  0  0  0
 84 85  1  0  0  0
 84 87  1  0  0  0
 84181  1  0  0  0
 85 86  2  0  0  0
 85 91  1  0  0  0
 87 88  1  0  0  0
 87182  1  0  0  0
 87183  1  0  0  0
 88 89  1  0  0  0
 88184  1  0  0  0
 88185  1  0  0  0
 89 90  1  0  0  0
 90186  1  0  0  0
 90187  1  0  0  0
 90188  1  0  0  0
 91 92  1  0  0  0
 91189  1  0  0  0
 92 93  1  0  0  0
 92 95  1  0  0  0
 92190  1  0  0  0
 93 94  1  0  0  0
 93100  2  0  0  0
 94191  1  0  0  0
 95 96  1  0  0  0
 95192  1  0  0  0
 95193  1  0  0  0
 96 97  1  0  0  0
 96194  1  0  0  0
 96195  1  0  0  0
 97 98  1  0  0  0
 97 99  2  0  0  0
 98196  1  0  0  0
M  CHG  2   1   1  35   1
M  END
> <s_m_source_file>
../4zdu_ligand.sdf

> <i_m_source_file_index>
1

> <s_epik_input>
W09IXVtDSDJdW0NASF0oW05IMytdKUMoPU8pW05IXVtDQEBIXShbQ0gyXVtDSDJdQyg9TylbTkgyXSlDKD1PKVtOSF1bQ0gyXUMoPU8pW05IXVtDQEBIXShbQ0BIXShbT0hdKVtDSDNdKUMoPU8pW05IXVtDQEBIXShbQ0gyXVtDSDJdW0NIMl1bQ0gyXVtOSDMrXSlDKD1PKVtOSF1bQ0BASF0oW0NIMl1bQ0gyXVtDSDJdW05IXS9DKD1OXFtIXSlbTkgyXSlDKD1PKVtOSF1bQ0BASF0oW0NIMl1bT0hdKUMoPU8pW05IXVtDQEBIXShbQ0gyXWMxW2NIXVtjSF1jKFtPSF0pW2NIXVtjSF0xKUMoPU8pW05IXVtDQEBIXShbQ0gyXVtDSDJdQyg9TylbT0hdKUMoPU8pW05IXVtDQEBIXShbQ0gyXVtDSDJdQyg9TylbTkgyXSlDKD1PKVtOSF1bQ0BASF0oW0NIMl1bQ0gyXVNbQ0gzXSlDKD1PKVtOSF1bQ0BIXShDKD1PKVtPSF0pW0NIMl1bQ0gyXUMoPU8pW09IXQ==

> <s_epik_cmdline>
J2VwaWtfYXBwJywgJy1pbWFlJywgJ2xpZ2FuZF9wcm8ubWFlJywgJy1vbWFlJywgJ2xpZ2FuZF9wcmVwLm1hZScsICctbXMnLCAnMScsICctcGgnLCAnNycsICctcGh0JywgJzAuNScsICctbnQn

> <s_epik_pKa_notes>
Molecule size exceeds maximum supported for generating protonation states

> <s_epik_Chemistry_Notes>
This compound has an imine and may undergo hydrolysis.

$$$$
