4zeb_ligand
                    3D
 Schrodinger Suite 2020-3.
 66 68  0  0  1  0            999 V2000
   33.0760   28.9000   36.0110 O   0  0  0  0  0  0
   32.5830   27.7640   36.7000 C   0  0  2  0  0  0
   33.4570   27.3070   37.8500 C   0  0  2  0  0  0
   34.5700   28.2100   38.0730 O   0  0  0  0  0  0
   33.9000   25.9260   37.8670 C   0  0  1  0  0  0
   34.6430   25.5790   39.0620 O   0  0  0  0  0  0
   32.9850   24.8700   37.2740 C   0  0  1  0  0  0
   32.4540   23.8380   38.1590 C   0  0  0  0  0  0
   31.2740   24.0890   38.8560 O   0  0  0  0  0  0
   31.8560   25.4720   36.4590 O   0  0  0  0  0  0
   32.1450   26.6590   35.7490 C   0  0  2  0  0  0
   33.1240   26.3910   34.7520 O   0  0  0  0  0  0
   32.7330   26.1980   33.3510 C   0  0  1  0  0  0
   32.5150   27.5460   32.6830 C   0  0  0  0  0  0
   33.2620   28.6250   33.1680 O   0  0  0  0  0  0
   33.8890   25.4810   32.6850 C   0  0  1  0  0  0
   35.1630   25.9260   33.0940 O   0  0  0  0  0  0
   31.6650   25.3030   33.1690 O   0  0  0  0  0  0
   32.1840   24.0230   32.9150 C   0  0  2  0  0  0
   31.6780   23.0480   33.9190 C   0  0  0  0  0  0
   30.2910   22.8660   33.8900 O   0  0  0  0  0  0
   33.6590   24.1390   32.9960 C   0  0  1  0  0  0
   34.2200   23.3090   31.9760 O   0  0  0  0  0  0
   36.2780   22.2170   30.9970 O   0  5  0  0  0  0
   35.3690   22.1880   32.1940 P   0  0  1  0  0  0
   36.1500   22.4360   33.4430 O   0  0  0  0  0  0
   34.6340   20.7850   32.3540 O   0  0  0  0  0  0
   34.2580   19.8840   31.2770 C   0  0  2  0  0  0
   32.8330   19.6390   31.3250 C   0  0  1  0  0  0
   32.0520   20.8620   31.0900 O   0  0  0  0  0  0
   32.3440   18.5840   30.4940 C   0  0  1  0  0  0
   32.5190   18.8820   29.0880 O   0  0  0  0  0  0
   33.1310   17.3100   30.7400 C   0  0  0  0  0  0
   34.5300   17.5370   30.6050 O   0  0  0  0  0  0
   35.0360   18.5850   31.4240 C   0  0  1  0  0  0
   36.3770   18.7440   31.1660 O   0  0  0  0  0  0
   33.4280   29.7759   36.5757 H   0  0  0  0  0  0
   31.6814   28.1774   37.1756 H   0  0  0  0  0  0
   32.7974   27.3273   38.7301 H   0  0  0  0  0  0
   34.4016   29.2969   38.0897 H   0  0  0  0  0  0
   34.6967   25.9545   37.1091 H   0  0  0  0  0  0
   35.3172   26.3154   39.5237 H   0  0  0  0  0  0
   33.6810   24.2852   36.6546 H   0  0  0  0  0  0
   32.2429   22.9288   37.5769 H   0  0  0  0  0  0
   33.1933   23.6094   38.9408 H   0  0  0  0  0  0
   30.8585   23.3233   39.5276 H   0  0  0  0  0  0
   31.2292   26.9432   35.2099 H   0  0  0  0  0  0
   32.7654   27.4705   31.6145 H   0  0  0  0  0  0
   31.4617   27.8435   32.7926 H   0  0  0  0  0  0
   33.1424   29.6224   32.7198 H   0  0  0  0  0  0
   33.9769   25.6222   31.5976 H   0  0  0  0  0  0
   35.4684   26.9661   32.9073 H   0  0  0  0  0  0
   31.8482   23.7088   31.9157 H   0  0  0  0  0  0
   32.1373   22.0648   33.7391 H   0  0  0  0  0  0
   31.9379   23.3946   34.9301 H   0  0  0  0  0  0
   29.8133   22.1662   34.5915 H   0  0  0  0  0  0
   34.1240   23.8698   33.9559 H   0  0  0  0  0  0
   34.4635   20.3715   30.3126 H   0  0  0  0  0  0
   32.6907   19.2598   32.3477 H   0  0  0  0  0  0
   32.2889   21.7812   31.6459 H   0  0  0  0  0  0
   31.2727   18.5257   30.7369 H   0  0  0  0  0  0
   32.0408   19.7708   28.6505 H   0  0  0  0  0  0
   32.9305   16.9461   31.7585 H   0  0  0  0  0  0
   32.8270   16.5446   30.0108 H   0  0  0  0  0  0
   34.9875   18.2360   32.4660 H   0  0  0  0  0  0
   36.9533   19.5114   31.7035 H   0  0  0  0  0  0
  1  2  1  0  0  0
  1 37  1  0  0  0
  2  3  1  0  0  0
  2 11  1  0  0  0
  2 38  1  0  0  0
  3  4  1  0  0  0
  3  5  1  0  0  0
  3 39  1  0  0  0
  4 40  1  0  0  0
  5  6  1  0  0  0
  5  7  1  0  0  0
  5 41  1  0  0  0
  6 42  1  0  0  0
  7  8  1  0  0  0
  7 10  1  0  0  0
  7 43  1  0  0  0
  8  9  1  0  0  0
  8 44  1  0  0  0
  8 45  1  0  0  0
  9 46  1  0  0  0
 10 11  1  0  0  0
 11 12  1  0  0  0
 11 47  1  0  0  0
 12 13  1  0  0  0
 13 14  1  0  0  0
 13 16  1  0  0  0
 13 18  1  0  0  0
 14 15  1  0  0  0
 14 48  1  0  0  0
 14 49  1  0  0  0
 15 50  1  0  0  0
 16 17  1  0  0  0
 16 22  1  0  0  0
 16 51  1  0  0  0
 17 52  1  0  0  0
 18 19  1  0  0  0
 19 20  1  0  0  0
 19 22  1  0  0  0
 19 53  1  0  0  0
 20 21  1  0  0  0
 20 54  1  0  0  0
 20 55  1  0  0  0
 21 56  1  0  0  0
 22 23  1  0  0  0
 22 57  1  0  0  0
 23 25  1  0  0  0
 24 25  1  0  0  0
 25 26  2  0  0  0
 25 27  1  0  0  0
 27 28  1  0  0  0
 28 29  1  0  0  0
 28 35  1  0  0  0
 28 58  1  0  0  0
 29 30  1  0  0  0
 29 31  1  0  0  0
 29 59  1  0  0  0
 30 60  1  0  0  0
 31 32  1  0  0  0
 31 33  1  0  0  0
 31 61  1  0  0  0
 32 62  1  0  0  0
 33 34  1  0  0  0
 33 63  1  0  0  0
 33 64  1  0  0  0
 34 35  1  0  0  0
 35 36  1  0  0  0
 35 65  1  0  0  0
 36 66  1  0  0  0
M  CHG  1  24  -1
M  END
> <s_m_source_file>
../4zeb_ligand.sdf

> <i_m_source_file_index>
1

> <s_epik_input>
W09IXVtDQEBIXTFbQ0BIXShbT0hdKVtDQEBIXShbT0hdKVtDQEBIXShbQ0gyXVtPSF0pT1tDQEBIXTFPW0NAQF0yKFtDSDJdW09IXSlbQ0BASF0oW09IXSlbQ0BASF0oW0NASF0oTzIpW0NIMl1bT0hdKU9bUEBdKD1PKShbT0hdKU9bQ0BASF0zW0NAQEhdKFtPSF0pW0NAQEhdKFtPSF0pW0NIMl1PW0NASF0zW09IXQ==

> <s_epik_cmdline>
J2VwaWtfYXBwJywgJy1pbWFlJywgJ2xpZ2FuZF9wcm8ubWFlJywgJy1vbWFlJywgJ2xpZ2FuZF9wcmVwLm1hZScsICctbXMnLCAnMScsICctcGgnLCAnNycsICctcGh0JywgJzAuNScsICctbnQn

> <r_lp_tautomer_probability>
1

> <r_epik_Ionization_Penalty>
  0.0004

> <r_epik_Ionization_Penalty_Charging>
  0.0002

> <r_epik_Ionization_Penalty_Neutral>
  0.0002

> <r_epik_State_Penalty>
 -0.0000

> <r_epik_Charging_Adjusted_Penalty>
0.000170109269790021

> <i_epik_Tot_Q>
-1

> <i_epik_Tot_abs_Q>
1

> <s_epik_Chemistry_Notes>
This compound contains an acetal/aminal-like group ( X-CH(R)-Y where X, Y are N, S, or O) that may be acid/base labile, releasing an aldehyde.

$$$$
