4zec_ligand
                    3D
 Schrodinger Suite 2020-3.
 77 80  0  0  1  0            999 V2000
   -9.6000  -27.4570   26.6300 O   0  0  0  0  0  0
  -10.6340  -27.9180   27.3200 C   0  0  1  0  0  0
  -11.8620  -27.2830   26.8230 O   0  0  0  0  0  0
  -10.7860  -29.3630   27.0770 C   0  0  0  0  0  0
  -12.2270  -29.5770   26.9220 C   0  0  2  0  0  0
  -12.4670  -30.6430   26.1230 O   0  0  0  0  0  0
  -12.7510  -28.2770   26.3700 C   0  0  2  0  0  0
  -13.0120  -28.1370   24.9160 N   0  0  0  0  0  0
  -12.3730  -28.5410   23.7730 C   0  0  0  0  0  0
  -13.0800  -28.0690   22.7070 N   0  0  0  0  0  0
  -14.1730  -27.3200   23.1990 C   0  0  0  0  0  0
  -14.1370  -27.3490   24.6100 C   0  0  0  0  0  0
  -15.1160  -26.6520   25.3340 N   0  0  0  0  0  0
  -16.0930  -25.9420   24.6780 C   0  0  0  0  0  0
  -16.1560  -25.9080   23.2990 N   0  0  0  0  0  0
  -15.2490  -26.5870   22.5350 C   0  0  0  0  0  0
  -15.2640  -26.5170   21.0740 N   0  0  0  0  0  0
   -2.7420  -24.0410   29.3610 C   0  0  0  0  0  0
   -4.1800  -23.7090   29.5780 C   0  0  0  0  0  0
   -4.5160  -23.1770   30.9370 C   0  0  0  0  0  0
   -4.9610  -23.1630   28.3320 C   0  0  2  0  0  0
   -4.9210  -21.7740   28.1640 O   0  0  0  0  0  0
   -6.4130  -23.6530   28.2000 C   0  0  1  0  0  0
   -7.1130  -22.9360   27.2600 O   0  0  0  0  0  0
   -6.5980  -25.1370   27.9550 C   0  0  0  0  0  0
   -5.7170  -25.9470   28.1600 O   0  0  0  0  0  0
   -7.8910  -25.6330   27.4770 N   0  0  0  0  0  0
   -8.1480  -27.2620   27.1990 P   0  0  1  0  0  0
   -7.9860  -27.9910   28.5820 O   0  5  0  0  0  0
   -7.0620  -27.7280   26.1690 O   0  0  0  0  0  0
  -16.6110  -26.3030   20.1330 P   0  0  1  0  0  0
  -17.6090  -27.4090   20.4590 O   0  5  0  0  0  0
  -17.2770  -24.9920   20.5250 O   0  0  0  0  0  0
  -16.1720  -26.3330   18.6030 O   0  0  0  0  0  0
  -15.8380  -27.5490   17.9770 C   0  0  2  0  0  0
  -14.3620  -27.8270   17.9250 C   0  0  1  0  0  0
  -13.8670  -28.2940   19.2240 O   0  0  0  0  0  0
  -14.0120  -28.8120   16.9000 C   0  0  2  0  0  0
  -12.6290  -29.1590   16.8530 O   0  0  0  0  0  0
  -14.6990  -28.8130   15.5460 C   0  0  1  0  0  0
  -15.0190  -30.1660   14.9950 C   0  0  0  0  0  0
  -14.5470  -30.4160   13.7160 O   0  0  0  0  0  0
  -15.9700  -28.0140   15.5290 O   0  0  0  0  0  0
  -16.6750  -27.7940   16.7260 C   0  0  2  0  0  0
  -17.7460  -26.9240   16.5230 O   0  0  0  0  0  0
  -10.3823  -27.6641   28.3603 H   0  0  0  0  0  0
  -10.2357  -29.6415   26.1662 H   0  0  0  0  0  0
  -10.3840  -29.9232   27.9340 H   0  0  0  0  0  0
  -12.7422  -29.9179   27.8321 H   0  0  0  0  0  0
  -12.1286  -31.6448   26.4261 H   0  0  0  0  0  0
  -13.7668  -28.1306   26.7659 H   0  0  0  0  0  0
  -11.4604  -29.1350   23.7246 H   0  0  0  0  0  0
  -16.8345  -25.3937   25.2591 H   0  0  0  0  0  0
  -14.2751  -26.6200   20.6035 H   0  0  0  0  0  0
   -2.3054  -24.4113   30.3003 H   0  0  0  0  0  0
   -2.2024  -23.1391   29.0364 H   0  0  0  0  0  0
   -2.6578  -24.8174   28.5863 H   0  0  0  0  0  0
   -4.6113  -24.7112   29.7177 H   0  0  0  0  0  0
   -3.8784  -23.6642   31.6894 H   0  0  0  0  0  0
   -5.5726  -23.3853   31.1613 H   0  0  0  0  0  0
   -4.3438  -22.0908   30.9584 H   0  0  0  0  0  0
   -4.3780  -23.4891   27.4580 H   0  0  0  0  0  0
   -3.9612  -21.2400   28.2250 H   0  0  0  0  0  0
   -6.9211  -23.4048   29.1435 H   0  0  0  0  0  0
   -7.0952  -21.8364   27.2816 H   0  0  0  0  0  0
   -8.7015  -24.9104   27.3009 H   0  0  0  0  0  0
  -16.1683  -28.2995   18.7102 H   0  0  0  0  0  0
  -13.8561  -26.8858   17.6637 H   0  0  0  0  0  0
  -14.0328  -27.6870   20.1263 H   0  0  0  0  0  0
  -14.4781  -29.6701   17.4065 H   0  0  0  0  0  0
  -12.0375  -29.1882   17.7800 H   0  0  0  0  0  0
  -13.9453  -28.3520   14.8907 H   0  0  0  0  0  0
  -14.5815  -30.9390   15.6439 H   0  0  0  0  0  0
  -16.1105  -30.2965   14.9540 H   0  0  0  0  0  0
  -14.7401  -31.3880   13.2387 H   0  0  0  0  0  0
  -17.1818  -28.7570   16.8863 H   0  0  0  0  0  0
  -18.3988  -26.6496   17.3647 H   0  0  0  0  0  0
  1  2  1  0  0  0
  1 28  1  0  0  0
  2  3  1  0  0  0
  2  4  1  0  0  0
  2 46  1  0  0  0
  3  7  1  0  0  0
  4  5  1  0  0  0
  4 47  1  0  0  0
  4 48  1  0  0  0
  5  6  1  0  0  0
  5  7  1  0  0  0
  5 49  1  0  0  0
  6 50  1  0  0  0
  7  8  1  0  0  0
  7 51  1  0  0  0
  8  9  1  0  0  0
  8 12  1  0  0  0
  9 10  2  0  0  0
  9 52  1  0  0  0
 10 11  1  0  0  0
 11 12  2  0  0  0
 11 16  1  0  0  0
 12 13  1  0  0  0
 13 14  2  0  0  0
 14 15  1  0  0  0
 14 53  1  0  0  0
 15 16  2  0  0  0
 16 17  1  0  0  0
 17 31  1  0  0  0
 17 54  1  0  0  0
 18 19  1  0  0  0
 18 55  1  0  0  0
 18 56  1  0  0  0
 18 57  1  0  0  0
 19 20  1  0  0  0
 19 21  1  0  0  0
 19 58  1  0  0  0
 20 59  1  0  0  0
 20 60  1  0  0  0
 20 61  1  0  0  0
 21 22  1  0  0  0
 21 23  1  0  0  0
 21 62  1  0  0  0
 22 63  1  0  0  0
 23 24  1  0  0  0
 23 25  1  0  0  0
 23 64  1  0  0  0
 24 65  1  0  0  0
 25 26  2  0  0  0
 25 27  1  0  0  0
 27 28  1  0  0  0
 27 66  1  0  0  0
 28 29  1  0  0  0
 28 30  2  0  0  0
 31 32  1  0  0  0
 31 33  2  0  0  0
 31 34  1  0  0  0
 34 35  1  0  0  0
 35 36  1  0  0  0
 35 44  1  0  0  0
 35 67  1  0  0  0
 36 37  1  0  0  0
 36 38  1  0  0  0
 36 68  1  0  0  0
 37 69  1  0  0  0
 38 39  1  0  0  0
 38 40  1  0  0  0
 38 70  1  0  0  0
 39 71  1  0  0  0
 40 41  1  0  0  0
 40 43  1  0  0  0
 40 72  1  0  0  0
 41 42  1  0  0  0
 41 73  1  0  0  0
 41 74  1  0  0  0
 42 75  1  0  0  0
 43 44  1  0  0  0
 44 45  1  0  0  0
 44 76  1  0  0  0
 45 77  1  0  0  0
M  CHG  2  29  -1  32  -1
M  END
> <s_m_source_file>
../4zec_ligand.sdf

> <i_m_source_file_index>
1

> <s_epik_input>
W0NIM11bQ0hdKFtDSDNdKVtDQEhdKFtPSF0pW0NAQEhdKFtPSF0pQyg9TylbTkhdW1BAQF0oPU8pKFtPSF0pT1tDQEhdMU9bQ0BIXShbQ0BIXShbQ0gyXTEpW09IXSluKFtjSF1uMiljKGMyMyluW2NIXW5jM1tOSF1bUEBdKD1PKShbT0hdKU9bQ0BASF00W0NAQEhdKFtPSF0pW0NASF0oW09IXSlbQ0BASF0oW0NIMl1bT0hdKU9bQ0BASF00W09IXQ==

> <s_epik_cmdline>
J2VwaWtfYXBwJywgJy1pbWFlJywgJ2xpZ2FuZF9wcm8ubWFlJywgJy1vbWFlJywgJ2xpZ2FuZF9wcmVwLm1hZScsICctbXMnLCAnMScsICctcGgnLCAnNycsICctcGh0JywgJzAuNScsICctbnQn

> <r_lp_tautomer_probability>
1

> <r_epik_Ionization_Penalty>
  0.0040

> <r_epik_Ionization_Penalty_Charging>
  0.0000

> <r_epik_Ionization_Penalty_Neutral>
  0.0040

> <r_epik_State_Penalty>
 -0.0000

> <r_epik_Charging_Adjusted_Penalty>
2.48832227919837e-06

> <i_epik_Tot_Q>
-2

> <i_epik_Tot_abs_Q>
2

> <s_epik_Chemistry_Notes>
This compound contains an acetal/aminal-like group ( X-CH(R)-Y where X, Y are N, S, or O) that may be acid/base labile, releasing an aldehyde.

$$$$
