4zed_ligand
                    3D
 Schrodinger Suite 2020-3.
 78 81  0  0  1  0            999 V2000
  -14.0690  -27.7310   24.3310 C   0  0  2  0  0  0
  -14.9840  -28.9430   24.4230 C   0  0  0  0  0  0
  -16.1530  -28.7990   25.1970 O   0  0  0  0  0  0
  -14.7280  -26.6630   23.5420 C   0  0  2  0  0  0
  -12.9020  -27.9620   23.5870 O   0  0  0  0  0  0
  -13.1230  -27.6370   22.2470 C   0  0  2  0  0  0
  -11.9820  -26.8920   21.6350 C   0  0  0  0  0  0
  -11.8810  -25.4850   21.7780 O   0  0  0  0  0  0
  -14.4120  -26.8880   22.1950 C   0  0  1  0  0  0
  -15.4530  -27.6820   21.6630 O   0  0  0  0  0  0
  -16.8440  -25.6890   20.9430 O   0  0  0  0  0  0
  -16.4650  -27.1140   20.6160 P   0  0  2  0  0  0
  -17.6480  -28.0640   20.6330 O   0  5  0  0  0  0
  -15.7370  -27.0900   19.1960 O   0  0  0  0  0  0
  -15.6120  -28.2280   18.3300 C   0  0  2  0  0  0
  -14.2150  -28.5530   18.1640 C   0  0  1  0  0  0
  -13.6230  -29.0750   19.4400 O   0  0  0  0  0  0
  -13.8870  -29.4210   17.0790 C   0  0  1  0  0  0
  -14.3620  -30.7780   17.3820 O   0  0  0  0  0  0
  -14.5870  -29.0050   15.7890 C   0  0  0  0  0  0
  -15.9760  -28.7590   15.9750 O   0  0  0  0  0  0
  -16.2340  -27.8250   17.0050 C   0  0  1  0  0  0
  -17.5780  -27.5850   17.1010 O   0  0  0  0  0  0
  -14.9010  -27.4080   28.0700 O   0  0  0  0  0  0
  -13.4760  -27.5510   28.0000 C   0  0  2  0  0  0
  -12.7720  -26.3720   28.5430 C   0  0  2  0  0  0
  -13.5910  -25.5460   29.4120 O   0  0  0  0  0  0
  -12.0210  -25.5920   27.5970 C   0  0  1  0  0  0
  -11.4560  -24.3780   28.1700 O   0  0  0  0  0  0
  -11.0920  -26.3990   26.7250 C   0  0  1  0  0  0
   -9.7120  -26.6010   27.3140 C   0  0  0  0  0  0
   -8.7770  -25.5550   27.1700 O   0  0  0  0  0  0
  -11.6530  -27.7390   26.3680 O   0  0  0  0  0  0
  -13.0270  -27.9800   26.6130 C   0  0  2  0  0  0
  -13.8080  -27.2500   25.6500 O   0  0  0  0  0  0
  -14.7530  -24.4070   24.7110 C   0  0  0  0  0  0
  -15.6390  -24.9700   25.7720 O   0  0  0  0  0  0
  -14.0860  -25.4350   23.8670 O   0  0  0  0  0  0
  -13.8300  -23.1270   25.0540 C   0  0  0  0  0  0
  -14.2780  -22.1570   25.9480 C   0  0  0  0  0  0
  -13.4610  -21.0580   26.2210 C   0  0  0  0  0  0
  -12.2160  -20.9390   25.6000 C   0  0  0  0  0  0
  -11.7780  -21.8990   24.6820 C   0  0  0  0  0  0
  -12.6000  -23.0000   24.4000 C   0  0  0  0  0  0
  -15.3265  -29.2211   23.4154 H   0  0  0  0  0  0
  -14.4338  -29.7849   24.8686 H   0  0  0  0  0  0
  -16.8521  -29.6421   25.2995 H   0  0  0  0  0  0
  -15.8159  -26.6193   23.6988 H   0  0  0  0  0  0
  -13.1824  -28.5879   21.6971 H   0  0  0  0  0  0
  -11.0349  -27.2648   22.0521 H   0  0  0  0  0  0
  -11.9876  -27.0433   20.5455 H   0  0  0  0  0  0
  -11.0371  -24.9452   21.3237 H   0  0  0  0  0  0
  -14.3646  -25.9699   21.5910 H   0  0  0  0  0  0
  -16.0843  -29.1116   18.7841 H   0  0  0  0  0  0
  -13.7850  -27.5930   17.8422 H   0  0  0  0  0  0
  -13.7769  -28.5280   20.3819 H   0  0  0  0  0  0
  -12.7906  -29.3677   17.0075 H   0  0  0  0  0  0
  -13.9957  -31.3019   18.2772 H   0  0  0  0  0  0
  -14.1290  -28.0817   15.4047 H   0  0  0  0  0  0
  -14.4829  -29.8048   15.0410 H   0  0  0  0  0  0
  -15.8269  -26.8624   16.6619 H   0  0  0  0  0  0
  -17.9583  -26.8796   17.8545 H   0  0  0  0  0  0
  -15.3773  -27.1015   29.0130 H   0  0  0  0  0  0
  -13.2293  -28.3610   28.7021 H   0  0  0  0  0  0
  -11.9845  -26.8076   29.1755 H   0  0  0  0  0  0
  -14.2185  -26.0143   30.1846 H   0  0  0  0  0  0
  -12.7968  -25.2025   26.9214 H   0  0  0  0  0  0
  -12.0724  -23.7367   28.8171 H   0  0  0  0  0  0
  -11.0011  -25.7915   25.8125 H   0  0  0  0  0  0
   -9.7966  -26.7647   28.3985 H   0  0  0  0  0  0
   -9.2385  -27.4771   26.8468 H   0  0  0  0  0  0
   -7.7635  -25.6624   27.5838 H   0  0  0  0  0  0
  -13.1387  -29.0655   26.4742 H   0  0  0  0  0  0
  -15.2521  -22.2545   26.4274 H   0  0  0  0  0  0
  -13.7957  -20.2916   26.9201 H   0  0  0  0  0  0
  -11.5774  -20.0871   25.8336 H   0  0  0  0  0  0
  -10.8102  -21.7929   24.1919 H   0  0  0  0  0  0
  -12.2827  -23.7511   23.6766 H   0  0  0  0  0  0
  1  2  1  0  0  0
  1  4  1  0  0  0
  1  5  1  0  0  0
  1 35  1  0  0  0
  2  3  1  0  0  0
  2 45  1  0  0  0
  2 46  1  0  0  0
  3 47  1  0  0  0
  4  9  1  0  0  0
  4 38  1  0  0  0
  4 48  1  0  0  0
  5  6  1  0  0  0
  6  7  1  0  0  0
  6  9  1  0  0  0
  6 49  1  0  0  0
  7  8  1  0  0  0
  7 50  1  0  0  0
  7 51  1  0  0  0
  8 52  1  0  0  0
  9 10  1  0  0  0
  9 53  1  0  0  0
 10 12  1  0  0  0
 11 12  2  0  0  0
 12 13  1  0  0  0
 12 14  1  0  0  0
 14 15  1  0  0  0
 15 16  1  0  0  0
 15 22  1  0  0  0
 15 54  1  0  0  0
 16 17  1  0  0  0
 16 18  1  0  0  0
 16 55  1  0  0  0
 17 56  1  0  0  0
 18 19  1  0  0  0
 18 20  1  0  0  0
 18 57  1  0  0  0
 19 58  1  0  0  0
 20 21  1  0  0  0
 20 59  1  0  0  0
 20 60  1  0  0  0
 21 22  1  0  0  0
 22 23  1  0  0  0
 22 61  1  0  0  0
 23 62  1  0  0  0
 24 25  1  0  0  0
 24 63  1  0  0  0
 25 26  1  0  0  0
 25 34  1  0  0  0
 25 64  1  0  0  0
 26 27  1  0  0  0
 26 28  1  0  0  0
 26 65  1  0  0  0
 27 66  1  0  0  0
 28 29  1  0  0  0
 28 30  1  0  0  0
 28 67  1  0  0  0
 29 68  1  0  0  0
 30 31  1  0  0  0
 30 33  1  0  0  0
 30 69  1  0  0  0
 31 32  1  0  0  0
 31 70  1  0  0  0
 31 71  1  0  0  0
 32 72  1  0  0  0
 33 34  1  0  0  0
 34 35  1  0  0  0
 34 73  1  0  0  0
 36 37  2  0  0  0
 36 38  1  0  0  0
 36 39  1  0  0  0
 39 40  2  0  0  0
 39 44  1  0  0  0
 40 41  1  0  0  0
 40 74  1  0  0  0
 41 42  2  0  0  0
 41 75  1  0  0  0
 42 43  1  0  0  0
 42 76  1  0  0  0
 43 44  2  0  0  0
 43 77  1  0  0  0
 44 78  1  0  0  0
M  CHG  1  13  -1
M  END
> <s_m_source_file>
../4zed_ligand.sdf

> <i_m_source_file_index>
1

> <s_epik_input>
W09IXVtDQEBIXTFbQ0BIXShbT0hdKVtDQEBIXShbT0hdKVtDQEBIXShbQ0gyXVtPSF0pT1tDQEBIXTFPW0NAQF0yKFtDSDJdW09IXSlbQ0BASF0oT0MoPU8pYzNbY0hdW2NIXVtjSF1bY0hdW2NIXTMpW0NAQEhdKFtDQEhdKE8yKVtDSDJdW09IXSlPW1BAXSg9TykoW09IXSlPW0NAQEhdNFtDQEBIXShbT0hdKVtDQEBIXShbT0hdKVtDSDJdT1tDQEhdNFtPSF0=

> <s_epik_cmdline>
J2VwaWtfYXBwJywgJy1pbWFlJywgJ2xpZ2FuZF9wcm8ubWFlJywgJy1vbWFlJywgJ2xpZ2FuZF9wcmVwLm1hZScsICctbXMnLCAnMScsICctcGgnLCAnNycsICctcGh0JywgJzAuNScsICctbnQn

> <r_lp_tautomer_probability>
1

> <r_epik_Ionization_Penalty>
  0.0002

> <r_epik_Ionization_Penalty_Charging>
  0.0001

> <r_epik_Ionization_Penalty_Neutral>
  0.0000

> <r_epik_State_Penalty>
 -0.0000

> <r_epik_Charging_Adjusted_Penalty>
0.000146073901737786

> <i_epik_Tot_Q>
-1

> <i_epik_Tot_abs_Q>
1

> <s_epik_Chemistry_Notes>
This compound has an ester and may undergo hydrolysis at high or low pH. This compound contains an acetal/aminal-like group ( X-CH(R)-Y where X, Y are N, S, or O) that may be acid/base labile, releasing an aldehyde.

$$$$
