4zei_ligand
                    3D
 Schrodinger Suite 2020-3.
 23 23  0  0  1  0            999 V2000
  -17.4160  -25.4000   20.4820 O   0  5  0  0  0  0
  -16.9090  -26.8400   20.1720 P   0  0  0  0  0  0
  -18.0530  -27.8500   20.3410 O   0  5  0  0  0  0
  -15.7720  -27.1370   21.1450 O   0  0  0  0  0  0
  -16.3660  -26.8670   18.6770 O   0  0  0  0  0  0
  -16.0840  -28.0300   17.8800 C   0  0  2  0  0  0
  -14.6780  -28.2700   17.8580 C   0  0  1  0  0  0
  -14.1430  -28.6540   19.1900 O   0  0  0  0  0  0
  -14.2270  -29.2210   16.9040 C   0  0  1  0  0  0
  -14.5700  -30.5410   17.3340 O   0  0  0  0  0  0
  -14.8030  -29.0240   15.5130 C   0  0  0  0  0  0
  -16.1690  -28.7470   15.5360 O   0  0  0  0  0  0
  -16.5550  -27.7510   16.4610 C   0  0  1  0  0  0
  -17.8960  -27.5320   16.3590 O   0  0  0  0  0  0
  -16.5591  -28.9045   18.3485 H   0  0  0  0  0  0
  -14.3052  -27.2979   17.5029 H   0  0  0  0  0  0
  -14.3773  -28.0426   20.0739 H   0  0  0  0  0  0
  -13.1356  -29.0840   16.9096 H   0  0  0  0  0  0
  -14.2496  -30.8976   18.3240 H   0  0  0  0  0  0
  -14.2945  -28.1814   15.0216 H   0  0  0  0  0  0
  -14.6526  -29.9388   14.9209 H   0  0  0  0  0  0
  -16.1207  -26.8035   16.1093 H   0  0  0  0  0  0
  -18.3820  -26.7855   17.0044 H   0  0  0  0  0  0
  1  2  1  0  0  0
  2  3  1  0  0  0
  2  4  2  0  0  0
  2  5  1  0  0  0
  5  6  1  0  0  0
  6  7  1  0  0  0
  6 13  1  0  0  0
  6 15  1  0  0  0
  7  8  1  0  0  0
  7  9  1  0  0  0
  7 16  1  0  0  0
  8 17  1  0  0  0
  9 10  1  0  0  0
  9 11  1  0  0  0
  9 18  1  0  0  0
 10 19  1  0  0  0
 11 12  1  0  0  0
 11 20  1  0  0  0
 11 21  1  0  0  0
 12 13  1  0  0  0
 13 14  1  0  0  0
 13 22  1  0  0  0
 14 23  1  0  0  0
M  CHG  2   1  -1   3  -1
M  END
> <s_m_source_file>
../4zei_ligand.sdf

> <i_m_source_file_index>
1

> <s_epik_input>
W09IXVAoPU8pKFtPSF0pT1tDQEBIXTFbQ0BASF0oW09IXSlbQ0BASF0oW09IXSlbQ0gyXU9bQ0BIXTFbT0hd

> <s_epik_cmdline>
J2VwaWtfYXBwJywgJy1pbWFlJywgJ2xpZ2FuZF9wcm8ubWFlJywgJy1vbWFlJywgJ2xpZ2FuZF9wcmVwLm1hZScsICctbXMnLCAnMScsICctcGgnLCAnNycsICctcGh0JywgJzAuNScsICctbnQn

> <r_epik_Ionization_Penalty>
  0.0784

> <r_epik_Ionization_Penalty_Charging>
  0.0784

> <r_epik_Ionization_Penalty_Neutral>
  0.0000

> <r_epik_State_Penalty>
  0.0693

> <r_epik_Charging_Adjusted_Penalty>
0.147743163172631

> <i_epik_Tot_Q>
-2

> <i_epik_Tot_abs_Q>
2

> <s_epik_Chemistry_Notes>
This compound contains an acetal/aminal-like group ( X-CH(R)-Y where X, Y are N, S, or O) that may be acid/base labile, releasing an aldehyde.

$$$$
