4zek_ligand
                    3D
 Schrodinger Suite 2020-3.
 33 33  0  0  1  0            999 V2000
  -13.3670  -26.2370   21.8030 C   0  0  0  0  0  0
  -14.8510  -26.0020   22.0710 C   0  0  0  0  0  0
  -15.2140  -25.7370   23.4990 C   0  0  0  0  0  0
  -15.6860  -26.9100   21.4320 O   0  0  0  0  0  0
  -16.6860  -26.4640   20.3100 P   0  0  1  0  0  0
  -17.8670  -27.4020   20.3190 O   0  5  0  0  0  0
  -17.1490  -25.0690   20.5760 O   0  0  0  0  0  0
  -15.9970  -26.4420   18.8850 O   0  0  0  0  0  0
  -15.8420  -27.5880   18.0160 C   0  0  2  0  0  0
  -14.4510  -27.9270   17.8610 C   0  0  1  0  0  0
  -13.8700  -28.3960   19.1450 O   0  0  0  0  0  0
  -14.1440  -28.8610   16.8420 C   0  0  1  0  0  0
  -14.5300  -30.1940   17.2210 O   0  0  0  0  0  0
  -14.8340  -28.5570   15.5280 C   0  0  0  0  0  0
  -16.2020  -28.2330   15.7100 O   0  0  0  0  0  0
  -16.4390  -27.2340   16.6730 C   0  0  1  0  0  0
  -17.7920  -27.0330   16.7710 O   0  0  0  0  0  0
  -12.7735  -25.4825   22.3400 H   0  0  0  0  0  0
  -13.1721  -26.1564   20.7234 H   0  0  0  0  0  0
  -13.0859  -27.2414   22.1524 H   0  0  0  0  0  0
  -15.1477  -25.0911   21.5305 H   0  0  0  0  0  0
  -14.5073  -25.0116   23.9284 H   0  0  0  0  0  0
  -15.1673  -26.6763   24.0696 H   0  0  0  0  0  0
  -16.2341  -25.3284   23.5482 H   0  0  0  0  0  0
  -16.3212  -28.4586   18.4877 H   0  0  0  0  0  0
  -14.0082  -26.9904   17.4913 H   0  0  0  0  0  0
  -14.0034  -27.7994   20.0595 H   0  0  0  0  0  0
  -13.0486  -28.7858   16.7755 H   0  0  0  0  0  0
  -14.1458  -30.6338   18.1532 H   0  0  0  0  0  0
  -14.3397  -27.7020   15.0435 H   0  0  0  0  0  0
  -14.7736  -29.4365   14.8700 H   0  0  0  0  0  0
  -16.0164  -26.2960   16.2838 H   0  0  0  0  0  0
  -18.1875  -26.2860   17.4750 H   0  0  0  0  0  0
  1  2  1  0  0  0
  1 18  1  0  0  0
  1 19  1  0  0  0
  1 20  1  0  0  0
  2  3  1  0  0  0
  2  4  1  0  0  0
  2 21  1  0  0  0
  3 22  1  0  0  0
  3 23  1  0  0  0
  3 24  1  0  0  0
  4  5  1  0  0  0
  5  6  1  0  0  0
  5  7  2  0  0  0
  5  8  1  0  0  0
  8  9  1  0  0  0
  9 10  1  0  0  0
  9 16  1  0  0  0
  9 25  1  0  0  0
 10 11  1  0  0  0
 10 12  1  0  0  0
 10 26  1  0  0  0
 11 27  1  0  0  0
 12 13  1  0  0  0
 12 14  1  0  0  0
 12 28  1  0  0  0
 13 29  1  0  0  0
 14 15  1  0  0  0
 14 30  1  0  0  0
 14 31  1  0  0  0
 15 16  1  0  0  0
 16 17  1  0  0  0
 16 32  1  0  0  0
 17 33  1  0  0  0
M  CHG  1   6  -1
M  END
> <s_m_source_file>
../4zek_ligand.sdf

> <i_m_source_file_index>
1

> <s_epik_input>
W0NIM11bQ0hdKFtDSDNdKU9bUEBdKD1PKShbT0hdKU9bQ0BASF0xW0NAQEhdKFtPSF0pW0NAQEhdKFtPSF0pW0NIMl1PW0NASF0xW09IXQ==

> <s_epik_cmdline>
J2VwaWtfYXBwJywgJy1pbWFlJywgJ2xpZ2FuZF9wcm8ubWFlJywgJy1vbWFlJywgJ2xpZ2FuZF9wcmVwLm1hZScsICctbXMnLCAnMScsICctcGgnLCAnNycsICctcGh0JywgJzAuNScsICctbnQn

> <r_lp_tautomer_probability>
1

> <r_epik_Ionization_Penalty>
  0.0003

> <r_epik_Ionization_Penalty_Charging>
  0.0003

> <r_epik_Ionization_Penalty_Neutral>
  0.0000

> <r_epik_State_Penalty>
 -0.0000

> <r_epik_Charging_Adjusted_Penalty>
0.000339471724407574

> <i_epik_Tot_Q>
-1

> <i_epik_Tot_abs_Q>
1

> <s_epik_Chemistry_Notes>
This compound contains an acetal/aminal-like group ( X-CH(R)-Y where X, Y are N, S, or O) that may be acid/base labile, releasing an aldehyde.

$$$$
