4zg6_ligand
                    3D
 Schrodinger Suite 2020-3.
 46 49  0  0  1  0            999 V2000
   65.6300   24.1450   30.3890 C   0  0  0  0  0  0
   64.4040   20.0590   25.7220 C   0  0  0  0  0  0
   60.4240   17.4520   19.6610 C   0  0  0  0  0  0
   62.9480   22.9510   21.4170 C   0  0  0  0  0  0
   62.8450   21.6740   21.9740 C   0  0  0  0  0  0
   62.0540   18.0810   21.4660 C   0  0  0  0  0  0
   60.6560   18.1050   20.8710 C   0  0  0  0  0  0
   59.6000   18.7540   21.5140 C   0  0  0  0  0  0
   58.3310   18.7510   20.9460 C   0  0  0  0  0  0
   58.0990   18.0950   19.7340 C   0  0  0  0  0  0
   59.1540   17.4360   19.0890 C   0  0  0  0  0  0
   65.9880   25.3100   30.3950 O   0  0  0  0  0  0
   65.5260   23.4720   31.5360 O   0  5  0  0  0  0
   65.2840   23.4730   29.0970 C   0  0  0  0  0  0
   64.8270   22.1640   29.1660 C   0  0  0  0  0  0
   64.5010   21.5050   27.9900 C   0  0  0  0  0  0
   64.6280   22.1310   26.7370 C   0  0  0  0  0  0
   65.0650   23.4600   26.6640 C   0  0  0  0  0  0
   65.4060   24.1270   27.8520 C   0  0  0  0  0  0
   64.1820   21.2870   25.5750 C   0  0  0  0  0  0
   64.6620   18.9350   25.8390 N   0  0  0  0  0  0
   63.5010   21.8260   24.5330 C   0  0  0  0  0  0
   63.0320   21.0700   23.3190 C   0  0  0  0  0  0
   62.6960   23.1040   20.0490 C   0  0  0  0  0  0
   62.3120   22.0110   19.2600 C   0  0  0  0  0  0
   62.0150   22.2120   17.5060 Cl  0  0  0  0  0  0
   62.2010   20.7300   19.7990 C   0  0  0  0  0  0
   62.4540   20.5060   21.1570 C   0  0  0  0  0  0
   62.4130   19.4070   21.9590 N   0  0  0  0  0  0
   62.7430   19.7030   23.2520 C   0  0  0  0  0  0
   56.8670   18.0860   19.1900 F   0  0  0  0  0  0
   61.2475   16.9473   19.1559 H   0  0  0  0  0  0
   63.2184   23.8082   22.0336 H   0  0  0  0  0  0
   62.0850   17.3653   22.3007 H   0  0  0  0  0  0
   62.7758   17.7756   20.6942 H   0  0  0  0  0  0
   59.7708   19.2635   22.4623 H   0  0  0  0  0  0
   57.5114   19.2638   21.4494 H   0  0  0  0  0  0
   58.9823   16.9150   18.1471 H   0  0  0  0  0  0
   64.7261   21.6624   30.1285 H   0  0  0  0  0  0
   64.1380   20.4783   28.0380 H   0  0  0  0  0  0
   65.1391   23.9674   25.7022 H   0  0  0  0  0  0
   65.7667   25.1548   27.8125 H   0  0  0  0  0  0
   63.2508   22.8972   24.5346 H   0  0  0  0  0  0
   62.7998   24.0874   19.5904 H   0  0  0  0  0  0
   61.9149   19.8964   19.1576 H   0  0  0  0  0  0
   62.7752   18.9988   24.0834 H   0  0  0  0  0  0
  1 12  2  0  0  0
  1 13  1  0  0  0
  1 14  1  0  0  0
  2 20  1  0  0  0
  2 21  3  0  0  0
  3  7  2  0  0  0
  3 11  1  0  0  0
  3 32  1  0  0  0
  4  5  2  0  0  0
  4 24  1  0  0  0
  4 33  1  0  0  0
  5 23  1  0  0  0
  5 28  1  0  0  0
  6  7  1  0  0  0
  6 29  1  0  0  0
  6 34  1  0  0  0
  6 35  1  0  0  0
  7  8  1  0  0  0
  8  9  2  0  0  0
  8 36  1  0  0  0
  9 10  1  0  0  0
  9 37  1  0  0  0
 10 11  2  0  0  0
 10 31  1  0  0  0
 11 38  1  0  0  0
 14 15  2  0  0  0
 14 19  1  0  0  0
 15 16  1  0  0  0
 15 39  1  0  0  0
 16 17  2  0  0  0
 16 40  1  0  0  0
 17 18  1  0  0  0
 17 20  1  0  0  0
 18 19  2  0  0  0
 18 41  1  0  0  0
 19 42  1  0  0  0
 20 22  2  0  0  0
 22 23  1  0  0  0
 22 43  1  0  0  0
 23 30  2  0  0  0
 24 25  2  0  0  0
 24 44  1  0  0  0
 25 26  1  0  0  0
 25 27  1  0  0  0
 27 28  2  0  0  0
 27 45  1  0  0  0
 28 29  1  0  0  0
 29 30  1  0  0  0
 30 46  1  0  0  0
M  CHG  1  13  -1
M  END
> <s_m_source_file>
../4zg6_ligand.sdf

> <i_m_source_file_index>
1

> <s_epik_input>
Tz1DKFtPSF0pYzFbY0hdW2NIXWMoW2NIXVtjSF0xKUMoXEMjTik9W0NIXVxjMltjSF1uKGMoYzIzKVtjSF1jKENsKVtjSF1bY0hdMylbQ0gyXWM0W2NIXVtjSF1jKEYpW2NIXVtjSF00

> <s_epik_cmdline>
J2VwaWtfYXBwJywgJy1pbWFlJywgJ2xpZ2FuZF9wcm8ubWFlJywgJy1vbWFlJywgJ2xpZ2FuZF9wcmVwLm1hZScsICctbXMnLCAnMScsICctcGgnLCAnNycsICctcGh0JywgJzAuNScsICctbnQn

> <r_lp_tautomer_probability>
1

> <r_epik_Ionization_Penalty>
  0.0003

> <r_epik_Ionization_Penalty_Charging>
  0.0003

> <r_epik_Ionization_Penalty_Neutral>
  0.0000

> <r_epik_State_Penalty>
 -0.0000

> <r_epik_Charging_Adjusted_Penalty>
0.000305774912121766

> <i_epik_Tot_Q>
-1

> <i_epik_Tot_abs_Q>
1

$$$$
