4zg7_ligand
                    3D
 Schrodinger Suite 2020-3.
 57 62  0  0  1  0            999 V2000
   -8.2120    5.3360  -38.9300 C   0  0  0  0  0  0
   -7.8850    2.8960  -38.7820 C   0  0  0  0  0  0
   -6.6400    2.8450  -38.0170 C   0  0  0  0  0  0
   -6.1400    1.4960  -37.7130 C   0  0  0  0  0  0
   -6.8170    7.1390  -39.6040 N   0  0  0  0  0  0
   -6.8200    0.3410  -38.1030 C   0  0  0  0  0  0
   -8.0100    0.3970  -38.7980 C   0  0  0  0  0  0
   -8.5190    1.6320  -39.1640 C   0  0  0  0  0  0
   -9.6910    2.1270  -39.8730 C   0  0  0  0  0  0
   -9.6910    3.5910  -39.9000 C   0  0  0  0  0  0
  -10.7380    4.4700  -40.5510 C   0  0  0  0  0  0
  -12.8220   -1.3570  -44.9400 O   0  5  0  0  0  0
  -11.1520   -1.4200  -46.3840 O   0  0  0  0  0  0
  -10.3150    0.8150  -42.1620 C   0  0  0  0  0  0
   -9.1230    1.2980  -42.6600 C   0  0  0  0  0  0
   -8.7340    1.0130  -43.9700 C   0  0  0  0  0  0
   -9.5340    0.2510  -44.8280 C   0  0  0  0  0  0
  -10.7350   -0.2760  -44.3850 C   0  0  0  0  0  0
  -11.1750    0.0050  -43.0240 C   0  0  0  0  0  0
  -11.5800   -1.0720  -45.2980 C   0  0  0  0  0  0
   -7.1010    7.8790  -38.3710 C   0  0  0  0  0  0
   -6.2470    9.1490  -38.4990 C   0  0  0  0  0  0
   -5.6340    9.1490  -39.8570 C   0  0  0  0  0  0
   -5.9690    7.8760  -40.4760 C   0  0  0  0  0  0
   -5.5210    7.6150  -41.7700 C   0  0  0  0  0  0
   -5.9730    3.9390  -37.6150 F   0  0  0  0  0  0
   -4.6710    1.3830  -36.7660 Cl  0  0  0  0  0  0
  -10.8890    1.1050  -40.5910 S   0  0  0  0  0  0
  -12.3070   -0.4680  -42.5140 F   0  0  0  0  0  0
   -8.5880    3.9760  -39.2130 N   0  0  0  0  0  0
   -7.2880    5.9340  -39.9370 C   0  0  0  0  0  0
   -7.0380    5.3750  -40.9650 O   0  0  0  0  0  0
   -4.7130    8.5810  -42.4170 C   0  0  0  0  0  0
   -4.3830    9.7850  -41.7940 C   0  0  0  0  0  0
   -4.8380   10.0840  -40.5000 C   0  0  0  0  0  0
   -5.5520    9.7660  -37.3010 C   0  0  0  0  0  0
   -6.7910   10.4550  -37.9130 C   0  0  0  0  0  0
   -9.1125    5.9671  -38.9017 H   0  0  0  0  0  0
   -7.7024    5.3805  -37.9562 H   0  0  0  0  0  0
   -6.3988   -0.6323  -37.8513 H   0  0  0  0  0  0
   -8.5427   -0.5184  -39.0557 H   0  0  0  0  0  0
  -11.5023    3.8384  -41.0274 H   0  0  0  0  0  0
  -10.2615    5.1058  -41.3117 H   0  0  0  0  0  0
  -11.2108    5.1044  -39.7868 H   0  0  0  0  0  0
   -8.4794    1.9073  -42.0255 H   0  0  0  0  0  0
   -7.7803    1.3948  -44.3345 H   0  0  0  0  0  0
   -9.2094    0.0709  -45.8528 H   0  0  0  0  0  0
   -8.1763    8.1048  -38.3183 H   0  0  0  0  0  0
   -6.8114    7.2693  -37.5024 H   0  0  0  0  0  0
   -5.7874    6.6858  -42.2737 H   0  0  0  0  0  0
   -4.3414    8.3801  -43.4218 H   0  0  0  0  0  0
   -3.7602   10.5071  -42.3220 H   0  0  0  0  0  0
   -4.5731   11.0237  -40.0153 H   0  0  0  0  0  0
   -5.5734    9.0576  -36.4597 H   0  0  0  0  0  0
   -4.5080    9.9954  -37.5607 H   0  0  0  0  0  0
   -6.7632   11.2414  -38.6817 H   0  0  0  0  0  0
   -7.8286   10.3036  -37.5806 H   0  0  0  0  0  0
  1 30  1  0  0  0
  1 31  1  0  0  0
  1 38  1  0  0  0
  1 39  1  0  0  0
  2  3  1  0  0  0
  2  8  2  0  0  0
  2 30  1  0  0  0
  3  4  2  0  0  0
  3 26  1  0  0  0
  4  6  1  0  0  0
  4 27  1  0  0  0
  5 21  1  0  0  0
  5 24  1  0  0  0
  5 31  1  0  0  0
  6  7  2  0  0  0
  6 40  1  0  0  0
  7  8  1  0  0  0
  7 41  1  0  0  0
  8  9  1  0  0  0
  9 10  2  0  0  0
  9 28  1  0  0  0
 10 11  1  0  0  0
 10 30  1  0  0  0
 11 42  1  0  0  0
 11 43  1  0  0  0
 11 44  1  0  0  0
 12 20  1  0  0  0
 13 20  2  0  0  0
 14 15  2  0  0  0
 14 19  1  0  0  0
 14 28  1  0  0  0
 15 16  1  0  0  0
 15 45  1  0  0  0
 16 17  2  0  0  0
 16 46  1  0  0  0
 17 18  1  0  0  0
 17 47  1  0  0  0
 18 19  2  0  0  0
 18 20  1  0  0  0
 19 29  1  0  0  0
 21 22  1  0  0  0
 21 48  1  0  0  0
 21 49  1  0  0  0
 22 23  1  0  0  0
 22 36  1  0  0  0
 22 37  1  0  0  0
 23 24  2  0  0  0
 23 35  1  0  0  0
 24 25  1  0  0  0
 25 33  2  0  0  0
 25 50  1  0  0  0
 31 32  2  0  0  0
 33 34  1  0  0  0
 33 51  1  0  0  0
 34 35  2  0  0  0
 34 52  1  0  0  0
 35 53  1  0  0  0
 36 37  1  0  0  0
 36 54  1  0  0  0
 36 55  1  0  0  0
 37 56  1  0  0  0
 37 57  1  0  0  0
M  CHG  1  12  -1
M  END
> <s_m_source_file>
../4zg7_ligand.sdf

> <i_m_source_file_index>
1

> <s_epik_input>
W2NIXTFbY0hdW2NIXVtjSF1jKGMxQzIzW0NIMl1bQ0gyXTMpTihbQ0gyXTIpQyg9TylbQ0gyXW40YyhbQ0gzXSljKGMoYzQ1KVtjSF1bY0hdYyhDbCljNUYpU2M2W2NIXVtjSF1bY0hdYyhjNkYpQyg9TylbT0hd

> <s_epik_cmdline>
J2VwaWtfYXBwJywgJy1pbWFlJywgJ2xpZ2FuZF9wcm8ubWFlJywgJy1vbWFlJywgJ2xpZ2FuZF9wcmVwLm1hZScsICctbXMnLCAnMScsICctcGgnLCAnNycsICctcGh0JywgJzAuNScsICctbnQn

> <r_lp_tautomer_probability>
1

> <r_epik_Ionization_Penalty>
  0.0001

> <r_epik_Ionization_Penalty_Charging>
  0.0001

> <r_epik_Ionization_Penalty_Neutral>
  0.0000

> <r_epik_State_Penalty>
 -0.0000

> <r_epik_Charging_Adjusted_Penalty>
6.67810812412896e-05

> <i_epik_Tot_Q>
-1

> <i_epik_Tot_abs_Q>
1

$$$$
