4zg9_ligand
                    3D
 Schrodinger Suite 2020-3.
 50 54  0  0  1  0            999 V2000
   35.7070   60.2410   -9.2490 C   0  0  0  0  0  0
   34.9660   61.2500  -10.1270 C   0  0  0  0  0  0
   35.8550   61.8860  -11.1680 C   0  0  0  0  0  0
   34.4790   58.1790  -10.1490 C   0  0  0  0  0  0
   34.6130   56.8550  -10.7340 C   0  0  2  0  0  0
   33.9070   55.8310   -9.8440 C   0  0  0  0  0  0
   36.7230   55.5890  -11.0110 C   0  0  0  0  0  0
   35.9450   54.3610  -10.6000 C   0  0  0  0  0  0
   34.1630   53.1740   -9.7750 C   0  0  0  0  0  0
   33.0010   52.6760   -9.2530 C   0  0  0  0  0  0
   33.8940   50.4410   -9.4850 C   0  0  0  0  0  0
   35.0870   50.9280  -10.0060 C   0  0  0  0  0  0
   37.6370   52.0800  -12.5480 C   0  0  0  0  0  0
   38.3490   52.5420  -14.7950 C   0  0  0  0  0  0
   37.1800   50.4990  -14.2890 C   0  0  0  0  0  0
   37.8660   50.9460  -16.4980 F   0  0  0  0  0  0
   37.7920   51.3390  -15.2080 C   0  0  0  0  0  0
   38.2780   52.9070  -13.4570 C   0  0  0  0  0  0
   37.1160   50.8650  -12.9640 C   0  0  0  0  0  0
   37.5490   52.4630  -11.1030 C   0  0  0  0  0  0
   36.2760   53.0330  -10.6730 N   0  0  0  0  0  0
   36.0580   56.8090  -10.5680 N   0  0  0  0  0  0
   36.5540   57.9620  -10.0680 C   0  0  0  0  0  0
   37.8040   58.1820   -9.8720 O   0  0  0  0  0  0
   35.2740   52.2930  -10.1810 C   0  0  0  0  0  0
   32.8760   51.3010   -9.1110 C   0  0  0  0  0  0
   34.5980   54.5270  -10.0390 C   0  0  0  0  0  0
   33.3100   58.7230  -10.0720 O   0  0  0  0  0  0
   35.5810   58.8820   -9.7860 N   0  0  0  0  0  0
   37.0570   61.7250  -11.1030 O   0  0  0  0  0  0
   35.3730   62.6420  -12.1630 O   0  5  0  0  0  0
   36.7739   60.5054   -9.2070 H   0  0  0  0  0  0
   35.2846   60.2588   -8.2335 H   0  0  0  0  0  0
   34.1431   60.7437  -10.6529 H   0  0  0  0  0  0
   34.5586   62.0546   -9.4972 H   0  0  0  0  0  0
   34.2364   56.6969  -11.7554 H   0  0  0  0  0  0
   33.9734   56.1506   -8.7936 H   0  0  0  0  0  0
   32.8498   55.7563  -10.1384 H   0  0  0  0  0  0
   37.7267   55.5543  -10.5622 H   0  0  0  0  0  0
   36.8122   55.6168  -12.1070 H   0  0  0  0  0  0
   32.1921   53.3433   -8.9555 H   0  0  0  0  0  0
   33.7581   49.3657   -9.3692 H   0  0  0  0  0  0
   35.8815   50.2336  -10.2792 H   0  0  0  0  0  0
   38.8389   53.1958  -15.5165 H   0  0  0  0  0  0
   36.7510   49.5517  -14.6156 H   0  0  0  0  0  0
   38.7258   53.8426  -13.1221 H   0  0  0  0  0  0
   36.6534   50.1962  -12.2382 H   0  0  0  0  0  0
   37.7143   51.5736  -10.4772 H   0  0  0  0  0  0
   38.3159   53.2183  -10.8765 H   0  0  0  0  0  0
   31.9560   50.8894   -8.6959 H   0  0  0  0  0  0
  1  2  1  0  0  0
  1 29  1  0  0  0
  1 32  1  0  0  0
  1 33  1  0  0  0
  2  3  1  0  0  0
  2 34  1  0  0  0
  2 35  1  0  0  0
  3 30  2  0  0  0
  3 31  1  0  0  0
  4  5  1  0  0  0
  4 28  2  0  0  0
  4 29  1  0  0  0
  5  6  1  0  0  0
  5 22  1  0  0  0
  5 36  1  0  0  0
  6 27  1  0  0  0
  6 37  1  0  0  0
  6 38  1  0  0  0
  7  8  1  0  0  0
  7 22  1  0  0  0
  7 39  1  0  0  0
  7 40  1  0  0  0
  8 21  1  0  0  0
  8 27  2  0  0  0
  9 10  2  0  0  0
  9 25  1  0  0  0
  9 27  1  0  0  0
 10 26  1  0  0  0
 10 41  1  0  0  0
 11 12  1  0  0  0
 11 26  2  0  0  0
 11 42  1  0  0  0
 12 25  2  0  0  0
 12 43  1  0  0  0
 13 18  2  0  0  0
 13 19  1  0  0  0
 13 20  1  0  0  0
 14 17  2  0  0  0
 14 18  1  0  0  0
 14 44  1  0  0  0
 15 17  1  0  0  0
 15 19  2  0  0  0
 15 45  1  0  0  0
 16 17  1  0  0  0
 18 46  1  0  0  0
 19 47  1  0  0  0
 20 21  1  0  0  0
 20 48  1  0  0  0
 20 49  1  0  0  0
 21 25  1  0  0  0
 22 23  1  0  0  0
 23 24  2  0  0  0
 23 29  1  0  0  0
 26 50  1  0  0  0
M  CHG  1  31  -1
M  END
> <s_m_source_file>
../4zg9_ligand.sdf

> <i_m_source_file_index>
1

> <s_epik_input>
Tz1DKFtPSF0pW0NIMl1bQ0gyXU4oQzE9TylDKD1PKU4oW0NASF0xMilbQ0gyXWMzYyhbQ0gyXTIpYzRjKFtjSF1bY0hdW2NIXVtjSF00KW4zW0NIMl1jNVtjSF1bY0hdYyhGKVtjSF1bY0hdNQ==

> <s_epik_cmdline>
J2VwaWtfYXBwJywgJy1pbWFlJywgJ2xpZ2FuZF9wcm8ubWFlJywgJy1vbWFlJywgJ2xpZ2FuZF9wcmVwLm1hZScsICctbXMnLCAnMScsICctcGgnLCAnNycsICctcGh0JywgJzAuNScsICctbnQn

> <r_lp_tautomer_probability>
1

> <r_epik_Ionization_Penalty>
  0.0011

> <r_epik_Ionization_Penalty_Charging>
  0.0011

> <r_epik_Ionization_Penalty_Neutral>
  0.0000

> <r_epik_State_Penalty>
 -0.0000

> <r_epik_Charging_Adjusted_Penalty>
0.00111083184785989

> <i_epik_Tot_Q>
-1

> <i_epik_Tot_abs_Q>
1

$$$$
