4zga_ligand
                    3D
 Schrodinger Suite 2020-3.
 42 46  0  0  1  0            999 V2000
    6.0280   65.5840   24.2120 C   0  0  0  0  0  0
    6.5860   67.9850   26.7330 C   0  0  0  0  0  0
    7.7220   67.9390   23.6160 O   0  0  0  0  0  0
    7.1890   67.7570   24.7580 C   0  0  0  0  0  0
    7.3330   68.6000   25.8090 N   0  0  0  0  0  0
    6.4240   68.4910   27.8980 O   0  0  0  0  0  0
    5.8590   66.7620   26.4030 C   0  0  2  0  0  0
    6.0990   65.6280   27.3720 C   0  0  0  0  0  0
    6.0830   64.3910   26.5520 C   0  0  0  0  0  0
    6.1050   63.0100   27.0180 C   0  0  0  0  0  0
    6.1260   62.4390   28.2840 C   0  0  0  0  0  0
    6.1210   61.0530   28.3740 C   0  0  0  0  0  0
    6.1230   60.2490   27.2320 C   0  0  0  0  0  0
    6.1140   60.8050   25.9520 C   0  0  0  0  0  0
    6.0970   62.2020   25.7920 C   0  0  0  0  0  0
    6.4290   66.7110   25.0300 N   0  0  0  0  0  0
    6.0670   64.3450   25.0960 C   0  0  0  0  0  0
    6.0650   63.0480   24.7310 N   0  0  0  0  0  0
    6.0870   62.5800   23.3410 C   0  0  0  0  0  0
    4.7340   62.3860   22.7710 C   0  0  0  0  0  0
    4.0760   61.1770   22.9700 C   0  0  0  0  0  0
    2.8170   60.9940   22.4270 C   0  0  0  0  0  0
    4.1550   63.4150   22.0470 C   0  0  0  0  0  0
    2.8960   63.2220   21.5070 C   0  0  0  0  0  0
    2.2340   62.0260   21.7000 C   0  0  0  0  0  0
    1.0170   61.8510   21.1650 F   0  0  0  0  0  0
    5.0108   65.7526   23.8289 H   0  0  0  0  0  0
    6.7249   65.4774   23.3676 H   0  0  0  0  0  0
    7.8463   69.5414   26.0542 H   0  0  0  0  0  0
    4.7606   66.7348   26.4559 H   0  0  0  0  0  0
    7.0714   65.7681   27.8667 H   0  0  0  0  0  0
    5.3008   65.6172   28.1288 H   0  0  0  0  0  0
    6.1458   63.0598   29.1797 H   0  0  0  0  0  0
    6.1154   60.5826   29.3572 H   0  0  0  0  0  0
    6.1318   59.1647   27.3428 H   0  0  0  0  0  0
    6.1201   60.1563   25.0761 H   0  0  0  0  0  0
    6.6097   63.3174   22.7141 H   0  0  0  0  0  0
    6.6123   61.6150   23.2873 H   0  0  0  0  0  0
    4.5474   60.3820   23.5478 H   0  0  0  0  0  0
    2.2879   60.0514   22.5674 H   0  0  0  0  0  0
    4.6813   64.3590   21.9054 H   0  0  0  0  0  0
    2.4255   64.0164   20.9276 H   0  0  0  0  0  0
  1 16  1  0  0  0
  1 17  1  0  0  0
  1 27  1  0  0  0
  1 28  1  0  0  0
  2  5  1  0  0  0
  2  6  2  0  0  0
  2  7  1  0  0  0
  3  4  2  0  0  0
  4  5  1  0  0  0
  4 16  1  0  0  0
  5 29  1  0  0  0
  7  8  1  0  0  0
  7 16  1  0  0  0
  7 30  1  0  0  0
  8  9  1  0  0  0
  8 31  1  0  0  0
  8 32  1  0  0  0
  9 10  1  0  0  0
  9 17  2  0  0  0
 10 11  2  0  0  0
 10 15  1  0  0  0
 11 12  1  0  0  0
 11 33  1  0  0  0
 12 13  2  0  0  0
 12 34  1  0  0  0
 13 14  1  0  0  0
 13 35  1  0  0  0
 14 15  2  0  0  0
 14 36  1  0  0  0
 15 18  1  0  0  0
 17 18  1  0  0  0
 18 19  1  0  0  0
 19 20  1  0  0  0
 19 37  1  0  0  0
 19 38  1  0  0  0
 20 21  2  0  0  0
 20 23  1  0  0  0
 21 22  1  0  0  0
 21 39  1  0  0  0
 22 25  2  0  0  0
 22 40  1  0  0  0
 23 24  2  0  0  0
 23 41  1  0  0  0
 24 25  1  0  0  0
 24 42  1  0  0  0
 25 26  1  0  0  0
M  END
> <s_m_source_file>
../4zga_ligand.sdf

> <i_m_source_file_index>
1

> <s_epik_input>
Tz1DMVtOSF1DKD1PKU4oW0NASF0xMilbQ0gyXWMzYyhbQ0gyXTIpYzRjKFtjSF1bY0hdW2NIXVtjSF00KW4zW0NIMl1jNVtjSF1bY0hdYyhGKVtjSF1bY0hdNQ==

> <s_epik_cmdline>
J2VwaWtfYXBwJywgJy1pbWFlJywgJ2xpZ2FuZF9wcm8ubWFlJywgJy1vbWFlJywgJ2xpZ2FuZF9wcmVwLm1hZScsICctbXMnLCAnMScsICctcGgnLCAnNycsICctcGh0JywgJzAuNScsICctbnQn

> <r_lp_tautomer_probability>
0.999999999781575

> <r_epik_Ionization_Penalty>
  0.0213

> <r_epik_Ionization_Penalty_Charging>
  0.0000

> <r_epik_Ionization_Penalty_Neutral>
  0.0213

> <r_epik_State_Penalty>
  0.0171

> <r_epik_Charging_Adjusted_Penalty>
0.0170667673775985

> <i_epik_Tot_Q>
0

> <i_epik_Tot_abs_Q>
0

$$$$
