4zh2_ligand
                    3D
 Schrodinger Suite 2020-3.
 31 32  0  0  1  0            999 V2000
   30.7100   96.5970    8.6600 F   0  0  0  0  0  0
   30.4170   97.8440    8.4050 C   0  0  0  0  0  0
   29.8950   97.9430    7.2080 F   0  0  0  0  0  0
   29.5280   98.2180    9.2800 F   0  0  0  0  0  0
   31.5440   98.6010    8.5660 C   0  0  0  0  0  0
   32.1120   99.3720    7.5550 C   0  0  0  0  0  0
   32.1130   98.5600    9.8180 C   0  0  0  0  0  0
   33.2540   99.2880   10.0890 C   0  0  0  0  0  0
   33.8230  100.0560    9.0910 C   0  0  0  0  0  0
   33.2730  100.0900    7.8220 C   0  0  0  0  0  0
   33.9010  100.9070    6.8920 C   0  0  0  0  0  0
   34.0100  102.1850    7.1950 N   0  0  0  0  0  0
   35.3430  102.7380    6.9100 O   0  0  0  0  0  0
   34.4680  100.4830    5.7640 N   0  0  0  0  0  0
   34.5640   99.2320    5.3830 C   0  0  0  0  0  0
   33.8710   98.8410    4.2570 C   0  0  0  0  0  0
   33.9880   97.5520    3.7830 C   0  0  0  0  0  0
   34.8220   96.6640    4.4300 C   0  0  0  0  0  0
   35.5350   97.0640    5.5420 C   0  0  0  0  0  0
   35.4190   98.3570    6.0160 C   0  0  0  0  0  0
   31.6528   99.4123    6.5673 H   0  0  0  0  0  0
   31.6606   97.9497   10.5996 H   0  0  0  0  0  0
   33.7025   99.2573   11.0820 H   0  0  0  0  0  0
   34.7163  100.6423    9.3063 H   0  0  0  0  0  0
   35.5561  103.7963    7.1212 H   0  0  0  0  0  0
   34.9060  101.2081    5.0623 H   0  0  0  0  0  0
   33.2284   99.5536    3.7399 H   0  0  0  0  0  0
   33.4259   97.2369    2.9039 H   0  0  0  0  0  0
   34.9183   95.6426    4.0617 H   0  0  0  0  0  0
   36.1923   96.3572    6.0484 H   0  0  0  0  0  0
   35.9977   98.6808    6.8811 H   0  0  0  0  0  0
  1  2  1  0  0  0
  2  3  1  0  0  0
  2  4  1  0  0  0
  2  5  1  0  0  0
  5  6  2  0  0  0
  5  7  1  0  0  0
  6 10  1  0  0  0
  6 21  1  0  0  0
  7  8  2  0  0  0
  7 22  1  0  0  0
  8  9  1  0  0  0
  8 23  1  0  0  0
  9 10  2  0  0  0
  9 24  1  0  0  0
 10 11  1  0  0  0
 11 12  2  0  0  0
 11 14  1  0  0  0
 12 13  1  0  0  0
 13 25  1  0  0  0
 14 15  1  0  0  0
 14 26  1  0  0  0
 15 16  2  0  0  0
 15 20  1  0  0  0
 16 17  1  0  0  0
 16 27  1  0  0  0
 17 18  2  0  0  0
 17 28  1  0  0  0
 18 19  1  0  0  0
 18 29  1  0  0  0
 19 20  2  0  0  0
 19 30  1  0  0  0
 20 31  1  0  0  0
M  END
> <s_m_source_file>
../4zh2_ligand.sdf

> <i_m_source_file_index>
1

> <s_epik_input>
RkMoRikoRiljMVtjSF1jKFtjSF1bY0hdW2NIXTEpL0MoPU4vW09IXSlbTkhdYzJbY0hdW2NIXVtjSF1bY0hdW2NIXTI=

> <s_epik_cmdline>
J2VwaWtfYXBwJywgJy1pbWFlJywgJ2xpZ2FuZF9wcm8ubWFlJywgJy1vbWFlJywgJ2xpZ2FuZF9wcmVwLm1hZScsICctbXMnLCAnMScsICctcGgnLCAnNycsICctcGh0JywgJzAuNScsICctbnQn

> <r_lp_tautomer_probability>
1

> <r_epik_Ionization_Penalty>
  0.0002

> <r_epik_Ionization_Penalty_Charging>
  0.0000

> <r_epik_Ionization_Penalty_Neutral>
  0.0002

> <r_epik_State_Penalty>
 -0.0000

> <r_epik_Charging_Adjusted_Penalty>
0

> <i_epik_Tot_Q>
0

> <i_epik_Tot_abs_Q>
0

> <s_epik_Chemistry_Notes>
This compound has an imine and may undergo hydrolysis.

$$$$
