4zh4_ligand
                    3D
 Schrodinger Suite 2020-3.
 32 34  0  0  1  0            999 V2000
   31.2670   96.7310    7.9150 F   0  0  0  0  0  0
   31.8850   96.4400    9.0220 C   0  0  0  0  0  0
   32.3780   95.2710    8.9330 F   0  0  0  0  0  0
   31.0280   96.4530    9.9970 F   0  0  0  0  0  0
   32.9160   97.3400    9.3000 C   0  0  0  0  0  0
   33.3780   98.2810    8.3790 C   0  0  0  0  0  0
   33.4990   97.2700   10.5540 C   0  0  0  0  0  0
   33.0610   96.3840   11.4090 F   0  0  0  0  0  0
   34.5280   98.1290   10.9060 C   0  0  0  0  0  0
   34.9820   99.0650    9.9900 C   0  0  0  0  0  0
   34.4140   99.1430    8.7260 C   0  0  0  0  0  0
   34.8760  100.0600    7.8800 C   0  0  0  0  0  0
   34.8930  101.3630    8.1080 C   0  0  0  0  0  0
   35.4410  101.9280    7.0290 N   0  3  0  0  0  0
   35.7450  101.0710    6.2050 N   0  0  0  0  0  0
   35.4120   99.8800    6.6890 C   0  0  0  0  0  0
   35.6060   98.7320    6.0520 C   0  0  0  0  0  0
   36.6880   97.9320    6.3890 C   0  0  0  0  0  0
   36.9030   96.7350    5.7190 C   0  0  0  0  0  0
   36.0380   96.3440    4.7080 C   0  0  0  0  0  0
   36.2460   95.2130    4.0780 F   0  0  0  0  0  0
   34.9580   97.1460    4.3650 C   0  0  0  0  0  0
   34.7430   98.3430    5.0350 C   0  0  0  0  0  0
   32.9276   98.3409    7.3882 H   0  0  0  0  0  0
   34.9776   98.0689   11.8971 H   0  0  0  0  0  0
   35.7897   99.7437   10.2639 H   0  0  0  0  0  0
   34.4962  101.7611    9.0535 H   0  0  0  0  0  0
   37.3699   98.2433    7.1803 H   0  0  0  0  0  0
   37.7502   96.1038    5.9872 H   0  0  0  0  0  0
   34.2793   96.8363    3.5703 H   0  0  0  0  0  0
   33.8985   98.9765    4.7635 H   0  0  0  0  0  0
   35.6340  102.9896    6.8152 H   0  0  0  0  0  0
  1  2  1  0  0  0
  2  3  1  0  0  0
  2  4  1  0  0  0
  2  5  1  0  0  0
  5  6  2  0  0  0
  5  7  1  0  0  0
  6 11  1  0  0  0
  6 24  1  0  0  0
  7  8  1  0  0  0
  7  9  2  0  0  0
  9 10  1  0  0  0
  9 25  1  0  0  0
 10 11  2  0  0  0
 10 26  1  0  0  0
 11 12  1  0  0  0
 12 13  2  0  0  0
 12 16  1  0  0  0
 13 14  1  0  0  0
 13 27  1  0  0  0
 14 15  1  0  0  0
 14 32  1  0  0  0
 15 16  2  0  0  0
 16 17  1  0  0  0
 17 18  2  0  0  0
 17 23  1  0  0  0
 18 19  1  0  0  0
 18 28  1  0  0  0
 19 20  2  0  0  0
 19 29  1  0  0  0
 20 21  1  0  0  0
 20 22  1  0  0  0
 22 23  2  0  0  0
 22 30  1  0  0  0
 23 31  1  0  0  0
M  CHG  1  14   1
M  END
> <s_m_source_file>
../4zh4_ligand.sdf

> <i_m_source_file_index>
1

> <s_epik_input>
RkMoRikoRiljMVtjSF1jKFtjSF1bY0hdYzFGKS1jMltjSF1bbkhdbmMyLWMzW2NIXVtjSF1jKEYpW2NIXVtjSF0z

> <s_epik_cmdline>
J2VwaWtfYXBwJywgJy1pbWFlJywgJ2xpZ2FuZF9wcm8ubWFlJywgJy1vbWFlJywgJ2xpZ2FuZF9wcmVwLm1hZScsICctbXMnLCAnMScsICctcGgnLCAnNycsICctcGh0JywgJzAuNScsICctbnQn

> <r_epik_Ionization_Penalty>
  0.0000

> <r_epik_Ionization_Penalty_Charging>
  0.0000

> <r_epik_Ionization_Penalty_Neutral>
  0.0000

> <r_epik_State_Penalty>
  0.2518

> <r_epik_Charging_Adjusted_Penalty>
0.251799352318081

> <i_epik_Tot_Q>
1

> <i_epik_Tot_abs_Q>
1

> <s_epik_Chemistry_Notes>
This compound has an imine and may undergo hydrolysis.

$$$$
