4zhl_ligand
                    3D
 Schrodinger Suite 2020-3.
149152  0  0  1  0            999 V2000
    9.9320  -25.4950  -26.7110 N   0  0  0  0  0  0
    8.7570  -26.3330  -27.1070 C   0  0  2  0  0  0
    9.1650  -27.5480  -27.9370 C   0  0  0  0  0  0
    9.3080  -27.4450  -29.1640 O   0  0  0  0  0  0
    7.7180  -25.5180  -27.8870 C   0  0  0  0  0  0
    6.5910  -24.5490  -26.8610 S   0  0  0  0  0  0
    9.3430  -28.7070  -27.2710 N   0  0  0  0  0  0
    9.5750  -29.9850  -27.9480 C   0  0  2  0  0  0
    8.4820  -30.2990  -28.9420 C   0  0  0  0  0  0
    7.3480  -29.8420  -28.7770 O   0  0  0  0  0  0
    9.5560  -30.9980  -26.8010 C   0  0  0  0  0  0
    9.9890  -30.2220  -25.6160 C   0  0  0  0  0  0
    9.4230  -28.8470  -25.8050 C   0  0  0  0  0  0
    8.8110  -31.0820  -29.9630 N   0  0  0  0  0  0
    7.8640  -31.3570  -31.0390 C   0  0  2  0  0  0
    6.6310  -32.1230  -30.5510 C   0  0  0  0  0  0
    5.5610  -32.0120  -31.1560 O   0  0  0  0  0  0
    8.5430  -32.1180  -32.1730 C   0  0  0  0  0  0
    6.7930  -32.8990  -29.4760 N   0  0  0  0  0  0
    5.7110  -33.7320  -28.9260 C   0  0  2  0  0  0
    5.1470  -33.2190  -27.5830 C   0  0  0  0  0  0
    4.5010  -33.9700  -26.8510 O   0  0  0  0  0  0
    6.1880  -35.1790  -28.7420 C   0  0  0  0  0  0
    6.7210  -35.8880  -29.9790 C   0  0  0  0  0  0
    6.3630  -35.4870  -31.2710 C   0  0  0  0  0  0
    7.5390  -37.0090  -29.8460 C   0  0  0  0  0  0
    6.8410  -36.1540  -32.3870 C   0  0  0  0  0  0
    8.0180  -37.6870  -30.9590 C   0  0  0  0  0  0
    7.6650  -37.2560  -32.2280 C   0  0  0  0  0  0
    8.1320  -37.9310  -33.3370 O   0  0  0  0  0  0
    5.3780  -31.9500  -27.2620 N   0  0  0  0  0  0
    4.7390  -31.3250  -26.0990 C   0  0  2  0  0  0
    3.2240  -31.5250  -26.1320 C   0  0  0  0  0  0
    2.6210  -31.6040  -27.2060 O   0  0  0  0  0  0
    5.0390  -29.8230  -26.0590 C   0  0  0  0  0  0
    4.5270  -29.2200  -24.8800 O   0  0  0  0  0  0
    2.6140  -31.6210  -24.9520 N   0  0  0  0  0  0
    1.1510  -31.6110  -24.8410 C   0  0  2  0  0  0
    0.7260  -30.4100  -23.9930 C   0  0  0  0  0  0
   -0.3140  -30.4200  -23.3300 O   0  0  0  0  0  0
    0.6570  -32.9470  -24.2740 C   0  0  0  0  0  0
    0.7420  -34.0620  -25.3080 C   0  0  0  0  0  0
    0.2070  -35.4000  -24.8130 C   0  0  0  0  0  0
    0.2060  -36.3770  -25.8990 N   0  0  0  0  0  0
   -0.2450  -37.6220  -25.8090 C   0  0  0  0  0  0
   -0.7500  -38.0910  -24.6690 N   0  0  0  0  0  0
   -0.2030  -38.4060  -26.8790 N   0  3  0  0  0  0
    1.5590  -29.3730  -24.0430 N   0  0  0  0  0  0
    1.3560  -28.1500  -23.2820 C   0  0  2  0  0  0
    0.5480  -27.1740  -24.1050 C   0  0  0  0  0  0
    0.8180  -26.9840  -25.3070 O   0  0  0  0  0  0
    2.7100  -27.5380  -22.9370 C   0  0  0  0  0  0
    2.6750  -26.2070  -22.1890 C   0  0  0  0  0  0
    1.8570  -26.0180  -21.0780 C   0  0  0  0  0  0
    3.4940  -25.1490  -22.5880 C   0  0  0  0  0  0
    1.8430  -24.8090  -20.4020 C   0  0  0  0  0  0
    3.4970  -23.9440  -21.9110 C   0  0  0  0  0  0
    2.6660  -23.7720  -20.8240 C   0  0  0  0  0  0
    2.6730  -22.5600  -20.1750 O   0  0  0  0  0  0
   -0.4550  -26.5720  -23.4590 N   0  0  0  0  0  0
   -1.2350  -25.4790  -24.0520 C   0  0  2  0  0  0
   -0.3580  -24.4070  -24.6990 C   0  0  0  0  0  0
   -0.6680  -23.9210  -25.7910 O   0  0  0  0  0  0
   -2.1260  -24.7880  -22.9940 C   0  0  2  0  0  0
   -3.4010  -25.5870  -22.8100 C   0  0  0  0  0  0
   -2.4970  -23.3650  -23.4140 C   0  0  0  0  0  0
   -4.2610  -25.1160  -21.6630 C   0  0  0  0  0  0
    0.7200  -24.0290  -24.0140 N   0  0  0  0  0  0
    1.6120  -22.9760  -24.5040 C   0  0  0  0  0  0
    2.3390  -23.2840  -25.8060 C   0  0  0  0  0  0
    2.8230  -22.3660  -26.4680 O   0  0  0  0  0  0
    2.4370  -24.5650  -26.1600 N   0  0  0  0  0  0
    3.0380  -24.9850  -27.4280 C   0  0  2  0  0  0
    1.9530  -25.3920  -28.4150 C   0  0  0  0  0  0
    2.0510  -25.0950  -29.6060 O   0  5  0  0  0  0
    4.0080  -26.1600  -27.2210 C   0  0  0  0  0  0
    5.3150  -25.9010  -25.9890 S   0  0  0  0  0  0
    0.9670  -26.0220  -28.0320 O   0  0  0  0  0  0
   10.4251  -25.1051  -27.6137 H   0  0  0  0  0  0
    9.5902  -24.6553  -26.0881 H   0  0  0  0  0  0
    8.3297  -26.6770  -26.1535 H   0  0  0  0  0  0
    8.2324  -24.8078  -28.5511 H   0  0  0  0  0  0
    7.0954  -26.1970  -28.4881 H   0  0  0  0  0  0
   10.5105  -29.9509  -28.5257 H   0  0  0  0  0  0
    8.5380  -31.3971  -26.6812 H   0  0  0  0  0  0
   10.2485  -31.8220  -27.0280 H   0  0  0  0  0  0
    9.5958  -30.6952  -24.7042 H   0  0  0  0  0  0
   11.0880  -30.2005  -25.5733 H   0  0  0  0  0  0
   10.0794  -28.0641  -25.3972 H   0  0  0  0  0  0
    8.4172  -28.7448  -25.3715 H   0  0  0  0  0  0
    9.8170  -31.5261  -29.9889 H   0  0  0  0  0  0
    7.5509  -30.3597  -31.3815 H   0  0  0  0  0  0
    9.4260  -31.5574  -32.5136 H   0  0  0  0  0  0
    7.8382  -32.2355  -33.0093 H   0  0  0  0  0  0
    8.8545  -33.1100  -31.8139 H   0  0  0  0  0  0
    7.7841  -32.8994  -28.9989 H   0  0  0  0  0  0
    4.9282  -33.6525  -29.6947 H   0  0  0  0  0  0
    7.0070  -35.2046  -28.0081 H   0  0  0  0  0  0
    5.3529  -35.7973  -28.3811 H   0  0  0  0  0  0
    5.6962  -34.6347  -31.4015 H   0  0  0  0  0  0
    7.8076  -37.3598  -28.8496 H   0  0  0  0  0  0
    6.5698  -35.8131  -33.3862 H   0  0  0  0  0  0
    8.6679  -38.5533  -30.8354 H   0  0  0  0  0  0
    7.8534  -37.5911  -34.3454 H   0  0  0  0  0  0
    6.0661  -31.3664  -27.8912 H   0  0  0  0  0  0
    5.1735  -31.8357  -25.2270 H   0  0  0  0  0  0
    6.1274  -29.6657  -26.0854 H   0  0  0  0  0  0
    4.5766  -29.3334  -26.9288 H   0  0  0  0  0  0
    4.6649  -28.1422  -24.7090 H   0  0  0  0  0  0
    3.2336  -31.7093  -24.0474 H   0  0  0  0  0  0
    0.7297  -31.4987  -25.8509 H   0  0  0  0  0  0
    1.2747  -33.2289  -23.4086 H   0  0  0  0  0  0
   -0.3919  -32.8460  -23.9584 H   0  0  0  0  0  0
    0.1557  -33.7838  -26.1962 H   0  0  0  0  0  0
    1.7925  -34.2161  -25.5956 H   0  0  0  0  0  0
    0.8445  -35.7704  -23.9966 H   0  0  0  0  0  0
   -0.8215  -35.2702  -24.4451 H   0  0  0  0  0  0
    0.6016  -36.1009  -26.8876 H   0  0  0  0  0  0
   -0.7880  -37.4469  -23.7781 H   0  0  0  0  0  0
   -1.1290  -39.1224  -24.6185 H   0  0  0  0  0  0
    0.2126  -38.0255  -27.8237 H   0  0  0  0  0  0
    2.4356  -29.4729  -24.7000 H   0  0  0  0  0  0
    0.8042  -28.4189  -22.3692 H   0  0  0  0  0  0
    3.2737  -28.2323  -22.2965 H   0  0  0  0  0  0
    3.2749  -27.3522  -23.8624 H   0  0  0  0  0  0
    1.2189  -26.8327  -20.7356 H   0  0  0  0  0  0
    4.1455  -25.2761  -23.4526 H   0  0  0  0  0  0
    1.1882  -24.6715  -19.5415 H   0  0  0  0  0  0
    4.1520  -23.1349  -22.2342 H   0  0  0  0  0  0
    2.0192  -22.3980  -19.3053 H   0  0  0  0  0  0
   -0.6877  -26.9259  -22.4438 H   0  0  0  0  0  0
   -1.8244  -25.9945  -24.8245 H   0  0  0  0  0  0
   -1.5722  -24.7389  -22.0448 H   0  0  0  0  0  0
   -4.0114  -25.5186  -23.7225 H   0  0  0  0  0  0
   -3.1490  -26.6399  -22.6155 H   0  0  0  0  0  0
   -1.5804  -22.7725  -23.5514 H   0  0  0  0  0  0
   -3.1189  -22.9026  -22.6333 H   0  0  0  0  0  0
   -3.0585  -23.3964  -24.3593 H   0  0  0  0  0  0
   -5.1615  -25.7443  -21.5978 H   0  0  0  0  0  0
   -4.5554  -24.0695  -21.8311 H   0  0  0  0  0  0
   -3.6929  -25.1908  -20.7240 H   0  0  0  0  0  0
    0.9329  -24.5293  -23.0578 H   0  0  0  0  0  0
    1.0324  -22.0583  -24.6826 H   0  0  0  0  0  0
    2.3915  -22.7772  -23.7537 H   0  0  0  0  0  0
    2.0463  -25.3185  -25.4603 H   0  0  0  0  0  0
    3.5814  -24.1032  -27.7983 H   0  0  0  0  0  0
    3.4458  -27.0456  -26.8897 H   0  0  0  0  0  0
    4.5201  -26.3841  -28.1684 H   0  0  0  0  0  0
   -0.5838  -39.4364  -26.8212 H   0  0  0  0  0  0
  1  2  1  0  0  0
  1 79  1  0  0  0
  1 80  1  0  0  0
  2  3  1  0  0  0
  2  5  1  0  0  0
  2 81  1  0  0  0
  3  4  2  0  0  0
  3  7  1  0  0  0
  5  6  1  0  0  0
  5 82  1  0  0  0
  5 83  1  0  0  0
  6 77  1  0  0  0
  7  8  1  0  0  0
  7 13  1  0  0  0
  8  9  1  0  0  0
  8 11  1  0  0  0
  8 84  1  0  0  0
  9 10  2  0  0  0
  9 14  1  0  0  0
 11 12  1  0  0  0
 11 85  1  0  0  0
 11 86  1  0  0  0
 12 13  1  0  0  0
 12 87  1  0  0  0
 12 88  1  0  0  0
 13 89  1  0  0  0
 13 90  1  0  0  0
 14 15  1  0  0  0
 14 91  1  0  0  0
 15 16  1  0  0  0
 15 18  1  0  0  0
 15 92  1  0  0  0
 16 17  2  0  0  0
 16 19  1  0  0  0
 18 93  1  0  0  0
 18 94  1  0  0  0
 18 95  1  0  0  0
 19 20  1  0  0  0
 19 96  1  0  0  0
 20 21  1  0  0  0
 20 23  1  0  0  0
 20 97  1  0  0  0
 21 22  2  0  0  0
 21 31  1  0  0  0
 23 24  1  0  0  0
 23 98  1  0  0  0
 23 99  1  0  0  0
 24 25  2  0  0  0
 24 26  1  0  0  0
 25 27  1  0  0  0
 25100  1  0  0  0
 26 28  2  0  0  0
 26101  1  0  0  0
 27 29  2  0  0  0
 27102  1  0  0  0
 28 29  1  0  0  0
 28103  1  0  0  0
 29 30  1  0  0  0
 30104  1  0  0  0
 31 32  1  0  0  0
 31105  1  0  0  0
 32 33  1  0  0  0
 32 35  1  0  0  0
 32106  1  0  0  0
 33 34  2  0  0  0
 33 37  1  0  0  0
 35 36  1  0  0  0
 35107  1  0  0  0
 35108  1  0  0  0
 36109  1  0  0  0
 37 38  1  0  0  0
 37110  1  0  0  0
 38 39  1  0  0  0
 38 41  1  0  0  0
 38111  1  0  0  0
 39 40  2  0  0  0
 39 48  1  0  0  0
 41 42  1  0  0  0
 41112  1  0  0  0
 41113  1  0  0  0
 42 43  1  0  0  0
 42114  1  0  0  0
 42115  1  0  0  0
 43 44  1  0  0  0
 43116  1  0  0  0
 43117  1  0  0  0
 44 45  1  0  0  0
 44118  1  0  0  0
 45 46  1  0  0  0
 45 47  2  0  0  0
 46119  1  0  0  0
 46120  1  0  0  0
 47121  1  0  0  0
 47149  1  0  0  0
 48 49  1  0  0  0
 48122  1  0  0  0
 49 50  1  0  0  0
 49 52  1  0  0  0
 49123  1  0  0  0
 50 51  2  0  0  0
 50 60  1  0  0  0
 52 53  1  0  0  0
 52124  1  0  0  0
 52125  1  0  0  0
 53 54  2  0  0  0
 53 55  1  0  0  0
 54 56  1  0  0  0
 54126  1  0  0  0
 55 57  2  0  0  0
 55127  1  0  0  0
 56 58  2  0  0  0
 56128  1  0  0  0
 57 58  1  0  0  0
 57129  1  0  0  0
 58 59  1  0  0  0
 59130  1  0  0  0
 60 61  1  0  0  0
 60131  1  0  0  0
 61 62  1  0  0  0
 61 64  1  0  0  0
 61132  1  0  0  0
 62 63  2  0  0  0
 62 68  1  0  0  0
 64 65  1  0  0  0
 64 66  1  0  0  0
 64133  1  0  0  0
 65 67  1  0  0  0
 65134  1  0  0  0
 65135  1  0  0  0
 66136  1  0  0  0
 66137  1  0  0  0
 66138  1  0  0  0
 67139  1  0  0  0
 67140  1  0  0  0
 67141  1  0  0  0
 68 69  1  0  0  0
 68142  1  0  0  0
 69 70  1  0  0  0
 69143  1  0  0  0
 69144  1  0  0  0
 70 71  2  0  0  0
 70 72  1  0  0  0
 72 73  1  0  0  0
 72145  1  0  0  0
 73 74  1  0  0  0
 73 76  1  0  0  0
 73146  1  0  0  0
 74 75  1  0  0  0
 74 78  2  0  0  0
 76 77  1  0  0  0
 76147  1  0  0  0
 76148  1  0  0  0
M  CHG  2  47   1  75  -1
M  END
> <s_m_source_file>
../4zhl_ligand.sdf

> <i_m_source_file_index>
1

> <s_epik_input>
Tz1DMVtDQEBIXShbTkgzK10pW0NIMl1TU1tDSDJdW0NAQEhdKEMoPU8pW09IXSlbTkhdQyg9TylbQ0gyXVtOSF1DKD1PKVtDQEhdKFtDQEBIXShbQ0gzXSlbQ0gyXVtDSDNdKVtOSF1DKD1PKVtDQEhdKFtDSDJdYzJbY0hdW2NIXWMoW09IXSlbY0hdW2NIXTIpW05IXUMoPU8pW0NASF0oW0NIMl1bQ0gyXVtDSDJdW05IXS9DKFtOSDJdKT1OXFtIXSlbTkhdQyg9TylbQ0BIXShbQ0gyXVtPSF0pW05IXUMoPU8pW0NASF0oW0NIMl1jM1tjSF1bY0hdYyhbT0hdKVtjSF1bY0hdMylbTkhdQyg9TylbQ0BIXShbQ0gzXSlbTkhdQyg9TylbQ0BASF0oTjE0KVtDSDJdW0NIMl1bQ0gyXTQ=

> <s_epik_cmdline>
J2VwaWtfYXBwJywgJy1pbWFlJywgJ2xpZ2FuZF9wcm8ubWFlJywgJy1vbWFlJywgJ2xpZ2FuZF9wcmVwLm1hZScsICctbXMnLCAnMScsICctcGgnLCAnNycsICctcGh0JywgJzAuNScsICctbnQn

> <r_lp_tautomer_probability>
0.99999999999473

> <r_epik_Ionization_Penalty>
  0.3899

> <r_epik_Ionization_Penalty_Charging>
  0.0000

> <r_epik_Ionization_Penalty_Neutral>
  0.3899

> <r_epik_State_Penalty>
  0.3867

> <r_epik_Charging_Adjusted_Penalty>
0.386713418002127

> <i_epik_Tot_Q>
0

> <i_epik_Tot_abs_Q>
2

> <s_epik_Chemistry_Notes>
This compound has an imine and may undergo hydrolysis.

$$$$
