4zim_ligand
                    3D
 Schrodinger Suite 2020-3.
 50 54  0  0  1  0            999 V2000
   -1.0590   44.6950    5.4900 C   0  0  0  0  0  0
   -0.6730   49.1820   -1.6020 C   0  0  0  0  0  0
   -1.0770   49.1200   -2.9290 C   0  0  0  0  0  0
   -4.0170   44.8870    1.9450 C   0  0  0  0  0  0
   -3.3200   44.1890    3.9610 C   0  0  0  0  0  0
    0.2290   44.9140    6.2210 C   0  0  0  0  0  0
   -6.1440   44.7270    0.5770 C   0  0  0  0  0  0
   -0.9250   46.3760    7.9110 C   0  0  0  0  0  0
    1.3550   45.5980    8.2900 C   0  0  0  0  0  0
   -1.2980   45.8120    9.2530 C   0  0  0  0  0  0
    0.9010   45.0650    9.6240 C   0  0  0  0  0  0
   -2.2390   47.4450   -1.0230 C   0  0  0  0  0  0
   -2.8780   46.5950    0.0070 C   0  0  0  0  0  0
   -2.6080   47.3690   -2.3630 C   0  0  0  0  0  0
   -2.0870   43.8870    5.9880 C   0  0  0  0  0  0
   -3.2230   43.6250    5.2350 C   0  0  0  0  0  0
   -2.0390   48.1980   -3.3100 C   0  0  0  0  0  0
   -2.1730   46.2400    1.1560 C   0  0  0  0  0  0
   -1.1740   45.2570    4.2230 C   0  0  0  0  0  0
   -4.1820   46.1110   -0.1560 C   0  0  0  0  0  0
   -1.2520   48.3580   -0.6570 C   0  0  0  0  0  0
   -2.7290   45.4220    2.1310 C   0  0  0  0  0  0
   -2.2930   44.9980    3.4390 C   0  0  0  0  0  0
   -4.7520   45.2480    0.7920 C   0  0  0  0  0  0
   -4.3570   44.1280    3.0480 N   0  0  0  0  0  0
    0.2130   45.6240    7.3670 N   0  0  0  0  0  0
   -6.7060   44.8640   -0.6510 N   0  0  0  0  0  0
    1.2530   44.3970    5.8040 O   0  0  0  0  0  0
   -6.7330   44.1680    1.5040 O   0  0  0  0  0  0
   -0.1880   45.8340   10.1520 O   0  0  0  0  0  0
   -0.4650   50.2450   -4.1000 Cl  0  0  0  0  0  0
    0.5820   50.2690   -1.1020 Cl  0  0  0  0  0  0
   -1.7823   46.2921    7.2269 H   0  0  0  0  0  0
   -0.6471   47.4345    8.0225 H   0  0  0  0  0  0
    1.7502   46.6166    8.4174 H   0  0  0  0  0  0
    2.1433   44.9470    7.8840 H   0  0  0  0  0  0
   -2.1126   46.4095    9.6882 H   0  0  0  0  0  0
   -1.6308   44.7704    9.1334 H   0  0  0  0  0  0
    0.5684   44.0229    9.5085 H   0  0  0  0  0  0
    1.7361   45.1063   10.3388 H   0  0  0  0  0  0
   -3.3597   46.6420   -2.6706 H   0  0  0  0  0  0
   -2.0030   43.4470    6.9927 H   0  0  0  0  0  0
   -4.0202   42.9943    5.6284 H   0  0  0  0  0  0
   -2.3456   48.1273   -4.3536 H   0  0  0  0  0  0
   -1.1585   46.6143    1.2928 H   0  0  0  0  0  0
   -0.3744   45.9091    3.8418 H   0  0  0  0  0  0
   -4.7612   46.4084   -1.0301 H   0  0  0  0  0  0
   -0.9343   48.4224    0.3837 H   0  0  0  0  0  0
   -6.1520   45.3686   -1.4562 H   0  0  0  0  0  0
   -7.7155   44.4704   -0.8409 H   0  0  0  0  0  0
  1  6  1  0  0  0
  1 15  2  0  0  0
  1 19  1  0  0  0
  2  3  2  0  0  0
  2 21  1  0  0  0
  2 32  1  0  0  0
  3 17  1  0  0  0
  3 31  1  0  0  0
  4 22  2  0  0  0
  4 24  1  0  0  0
  4 25  1  0  0  0
  5 16  1  0  0  0
  5 23  1  0  0  0
  5 25  2  0  0  0
  6 26  1  0  0  0
  6 28  2  0  0  0
  7 24  1  0  0  0
  7 27  1  0  0  0
  7 29  2  0  0  0
  8 10  1  0  0  0
  8 26  1  0  0  0
  8 33  1  0  0  0
  8 34  1  0  0  0
  9 11  1  0  0  0
  9 26  1  0  0  0
  9 35  1  0  0  0
  9 36  1  0  0  0
 10 30  1  0  0  0
 10 37  1  0  0  0
 10 38  1  0  0  0
 11 30  1  0  0  0
 11 39  1  0  0  0
 11 40  1  0  0  0
 12 13  1  0  0  0
 12 14  1  0  0  0
 12 21  2  0  0  0
 13 18  2  0  0  0
 13 20  1  0  0  0
 14 17  2  0  0  0
 14 41  1  0  0  0
 15 16  1  0  0  0
 15 42  1  0  0  0
 16 43  1  0  0  0
 17 44  1  0  0  0
 18 22  1  0  0  0
 18 45  1  0  0  0
 19 23  2  0  0  0
 19 46  1  0  0  0
 20 24  2  0  0  0
 20 47  1  0  0  0
 21 48  1  0  0  0
 22 23  1  0  0  0
 27 49  1  0  0  0
 27 50  1  0  0  0
M  END
> <s_m_source_file>
../4zim_ligand.sdf

> <i_m_source_file_index>
1

> <s_epik_input>
W0NIMl0xW0NIMl1PW0NIMl1bQ0gyXU4xQyg9TylDKFtDSF09Mik9W0NIXVtDSDJdQyg9TjMpQzJjKGMzNClbY0hdYyhbY0hdYzRDKD1PKVtOSDJdKS1jKFtjSF01KVtjSF1bY0hdYyhDbCljNUNs

> <s_epik_cmdline>
J2VwaWtfYXBwJywgJy1pbWFlJywgJ2xpZ2FuZF9wcm8ubWFlJywgJy1vbWFlJywgJ2xpZ2FuZF9wcmVwLm1hZScsICctbXMnLCAnMScsICctcGgnLCAnNycsICctcGh0JywgJzAuNScsICctbnQn

> <r_lp_tautomer_probability>
1

> <r_epik_Ionization_Penalty>
  0.0000

> <r_epik_Ionization_Penalty_Charging>
  0.0000

> <r_epik_Ionization_Penalty_Neutral>
  0.0000

> <r_epik_State_Penalty>
 -0.0000

> <r_epik_Charging_Adjusted_Penalty>
0

> <i_epik_Tot_Q>
0

> <i_epik_Tot_abs_Q>
0

> <s_epik_Chemistry_Notes>
This compound has an imine and may undergo hydrolysis.

$$$$
