4zip_ligand
                    3D
 Schrodinger Suite 2020-3.
 95 98  0  0  1  0            999 V2000
   20.9210   27.7670   14.9020 C   0  0  0  0  0  0
   21.5260   28.9720   14.6210 O   0  0  0  0  0  0
   22.9020   29.0060   14.9760 C   0  0  0  0  0  0
   21.5450   26.6480   15.3930 C   0  0  0  0  0  0
   20.7790   25.5190   15.6580 C   0  0  0  0  0  0
   19.4140   25.4920   15.3900 C   0  0  0  0  0  0
   18.8220   26.5880   14.7940 C   0  0  0  0  0  0
   19.5650   27.7000   14.4970 C   0  0  0  0  0  0
   18.4640   24.0950   15.8240 S   0  0  0  0  0  0
   17.3720   23.9870   14.8900 O   0  0  0  0  0  0
   19.4000   22.9840   15.9680 O   0  0  0  0  0  0
   17.8040   24.3450   17.3230 N   0  0  1  0  0  0
   18.7410   24.6510   18.4030 C   0  0  0  0  0  0
   18.4300   23.9830   19.7280 C   0  0  0  0  0  0
   18.4230   22.4810   19.5770 C   0  0  0  0  0  0
   19.4420   24.4410   20.7980 C   0  0  0  0  0  0
   16.5020   25.0110   17.3930 C   0  0  0  0  0  0
   15.4060   24.0800   17.8810 C   0  0  1  0  0  0
   14.2330   24.8130   18.2200 O   0  0  0  0  0  0
   15.0420   22.9690   16.8900 C   0  0  1  0  0  0
   14.2070   21.9790   17.5660 N   0  0  0  0  0  0
   14.6550   20.8040   17.9850 C   0  0  0  0  0  0
   15.8730   20.4860   18.0020 O   0  0  0  0  0  0
   14.2940   23.4600   15.6530 C   0  0  0  0  0  0
   12.6580   21.7750   14.6860 C   0  0  0  0  0  0
   12.4220   20.6160   13.9250 C   0  0  0  0  0  0
   13.4000   19.9540   13.2520 C   0  0  0  0  0  0
   14.6910   20.4930   13.2970 C   0  0  0  0  0  0
   14.9820   21.6250   14.0230 C   0  0  0  0  0  0
   13.9650   22.2890   14.7400 C   0  0  0  0  0  0
   13.6020   19.8380   18.5020 C   0  0  0  0  0  0
   13.8230   19.1930   19.7140 C   0  0  0  0  0  0
   12.8350   18.3100   20.2000 C   0  0  0  0  0  0
   11.6820   18.1190   19.4710 C   0  0  0  0  0  0
   11.5260   18.7240   18.2290 C   0  0  0  0  0  0
   12.4550   19.6420   17.7680 C   0  0  0  0  0  0
   13.1010   17.6140   21.5320 C   0  0  0  0  0  0
   10.2510   18.5540   17.4140 C   0  0  0  0  0  0
    9.2280   19.0070   17.9090 O   0  0  0  0  0  0
   10.2330   17.9860   16.2330 N   0  0  0  0  0  0
   11.4390   17.3370   15.6550 C   0  0  0  0  0  0
    9.0290   18.0590   15.3290 C   0  0  0  0  0  0
    9.2550   18.4960   13.8790 C   0  0  0  0  0  0
    9.7270   17.6540   12.9240 N   0  0  0  0  0  0
    9.7770   18.2890   11.7840 C   0  0  0  0  0  0
    9.4470   19.5920   11.9610 O   0  0  0  0  0  0
    9.1650   19.7290   13.3030 C   0  0  0  0  0  0
    8.6080   21.0600   13.7820 C   0  0  0  0  0  0
   10.3220   17.7980   10.4570 C   0  0  0  0  0  0
   23.3209   29.9918   14.7258 H   0  0  0  0  0  0
   23.4433   28.2259   14.4207 H   0  0  0  0  0  0
   23.0065   28.8266   16.0562 H   0  0  0  0  0  0
   22.6202   26.6446   15.5717 H   0  0  0  0  0  0
   21.2572   24.6371   16.0843 H   0  0  0  0  0  0
   17.7579   26.5683   14.5586 H   0  0  0  0  0  0
   19.1149   28.5295   13.9516 H   0  0  0  0  0  0
   19.7514   24.3253   18.1150 H   0  0  0  0  0  0
   18.7444   25.7351   18.5894 H   0  0  0  0  0  0
   17.4160   24.2727   20.0408 H   0  0  0  0  0  0
   17.6914   22.1933   18.8076 H   0  0  0  0  0  0
   18.1482   22.0174   20.5359 H   0  0  0  0  0  0
   19.4243   22.1380   19.2774 H   0  0  0  0  0  0
   19.4185   25.5377   20.8793 H   0  0  0  0  0  0
   20.4526   24.1162   20.5097 H   0  0  0  0  0  0
   19.1766   23.9957   21.7682 H   0  0  0  0  0  0
   16.5621   25.8614   18.0881 H   0  0  0  0  0  0
   16.2215   25.3739   16.3932 H   0  0  0  0  0  0
   15.7676   23.6266   18.8157 H   0  0  0  0  0  0
   14.2954   25.6558   18.9241 H   0  0  0  0  0  0
   15.9796   22.4983   16.5593 H   0  0  0  0  0  0
   13.1438   22.1911   17.7520 H   0  0  0  0  0  0
   13.3589   23.9508   15.9607 H   0  0  0  0  0  0
   14.9222   24.1782   15.1057 H   0  0  0  0  0  0
   11.8448   22.2641   15.2223 H   0  0  0  0  0  0
   11.4042   20.2294   13.8723 H   0  0  0  0  0  0
   13.1872   19.0392   12.6989 H   0  0  0  0  0  0
   15.4892   20.0016   12.7406 H   0  0  0  0  0  0
   16.0016   22.0098   14.0441 H   0  0  0  0  0  0
   14.7402   19.3658   20.2770 H   0  0  0  0  0  0
   10.8868   17.4895   19.8704 H   0  0  0  0  0  0
   12.2815   20.1961   16.8455 H   0  0  0  0  0  0
   14.0826   17.9253   21.9188 H   0  0  0  0  0  0
   13.0941   16.5240   21.3840 H   0  0  0  0  0  0
   12.3180   17.8911   22.2532 H   0  0  0  0  0  0
   12.2493   17.3405   16.3989 H   0  0  0  0  0  0
   11.7601   17.8907   14.7604 H   0  0  0  0  0  0
   11.1999   16.2996   15.3780 H   0  0  0  0  0  0
    8.5599   17.0663   15.2622 H   0  0  0  0  0  0
    8.3058   18.7794   15.7389 H   0  0  0  0  0  0
    8.4351   21.0158   14.8674 H   0  0  0  0  0  0
    7.6579   21.2664   13.2674 H   0  0  0  0  0  0
    9.3280   21.8608   13.5577 H   0  0  0  0  0  0
   10.5251   16.7188   10.5208 H   0  0  0  0  0  0
   11.2540   18.3333   10.2228 H   0  0  0  0  0  0
    9.5823   17.9857    9.6648 H   0  0  0  0  0  0
  1  2  1  0  0  0
  1  4  2  0  0  0
  1  8  1  0  0  0
  2  3  1  0  0  0
  3 50  1  0  0  0
  3 51  1  0  0  0
  3 52  1  0  0  0
  4  5  1  0  0  0
  4 53  1  0  0  0
  5  6  2  0  0  0
  5 54  1  0  0  0
  6  7  1  0  0  0
  6  9  1  0  0  0
  7  8  2  0  0  0
  7 55  1  0  0  0
  8 56  1  0  0  0
  9 10  2  0  0  0
  9 11  2  0  0  0
  9 12  1  0  0  0
 12 13  1  0  0  0
 12 17  1  0  0  0
 13 14  1  0  0  0
 13 57  1  0  0  0
 13 58  1  0  0  0
 14 15  1  0  0  0
 14 16  1  0  0  0
 14 59  1  0  0  0
 15 60  1  0  0  0
 15 61  1  0  0  0
 15 62  1  0  0  0
 16 63  1  0  0  0
 16 64  1  0  0  0
 16 65  1  0  0  0
 17 18  1  0  0  0
 17 66  1  0  0  0
 17 67  1  0  0  0
 18 19  1  0  0  0
 18 20  1  0  0  0
 18 68  1  0  0  0
 19 69  1  0  0  0
 20 21  1  0  0  0
 20 24  1  0  0  0
 20 70  1  0  0  0
 21 22  1  0  0  0
 21 71  1  0  0  0
 22 23  2  0  0  0
 22 31  1  0  0  0
 24 30  1  0  0  0
 24 72  1  0  0  0
 24 73  1  0  0  0
 25 26  2  0  0  0
 25 30  1  0  0  0
 25 74  1  0  0  0
 26 27  1  0  0  0
 26 75  1  0  0  0
 27 28  2  0  0  0
 27 76  1  0  0  0
 28 29  1  0  0  0
 28 77  1  0  0  0
 29 30  2  0  0  0
 29 78  1  0  0  0
 31 32  2  0  0  0
 31 36  1  0  0  0
 32 33  1  0  0  0
 32 79  1  0  0  0
 33 34  2  0  0  0
 33 37  1  0  0  0
 34 35  1  0  0  0
 34 80  1  0  0  0
 35 36  2  0  0  0
 35 38  1  0  0  0
 36 81  1  0  0  0
 37 82  1  0  0  0
 37 83  1  0  0  0
 37 84  1  0  0  0
 38 39  2  0  0  0
 38 40  1  0  0  0
 40 41  1  0  0  0
 40 42  1  0  0  0
 41 85  1  0  0  0
 41 86  1  0  0  0
 41 87  1  0  0  0
 42 43  1  0  0  0
 42 88  1  0  0  0
 42 89  1  0  0  0
 43 44  1  0  0  0
 43 47  2  0  0  0
 44 45  2  0  0  0
 45 46  1  0  0  0
 45 49  1  0  0  0
 46 47  1  0  0  0
 47 48  1  0  0  0
 48 90  1  0  0  0
 48 91  1  0  0  0
 48 92  1  0  0  0
 49 93  1  0  0  0
 49 94  1  0  0  0
 49 95  1  0  0  0
M  END
> <s_m_source_file>
../4zip_ligand.sdf

> <i_m_source_file_index>
1

> <s_epik_input>
W0NIM11PYzFbY0hdW2NIXWMoW2NIXVtjSF0xKVMoPU8pKD1PKU4oW0NIMl1bQ0hdKFtDSDNdKVtDSDNdKVtDSDJdW0NAQEhdKFtPSF0pW0NASF0oW0NIMl1jMltjSF1bY0hdW2NIXVtjSF1bY0hdMilbTkhdQyg9TyljM1tjSF1jKFtDSDNdKVtjSF1jKFtjSF0zKUMoPU8pTihbQ0gzXSlbQ0gyXWM0bmMoW0NIM10pb2M0W0NIM10=

> <s_epik_cmdline>
J2VwaWtfYXBwJywgJy1pbWFlJywgJ2xpZ2FuZF9wcm8ubWFlJywgJy1vbWFlJywgJ2xpZ2FuZF9wcmVwLm1hZScsICctbXMnLCAnMScsICctcGgnLCAnNycsICctcGh0JywgJzAuNScsICctbnQn

> <r_lp_tautomer_probability>
1

> <r_epik_Ionization_Penalty>
  0.0000

> <r_epik_Ionization_Penalty_Charging>
  0.0000

> <r_epik_Ionization_Penalty_Neutral>
  0.0000

> <r_epik_State_Penalty>
 -0.0000

> <r_epik_Charging_Adjusted_Penalty>
0

> <i_epik_Tot_Q>
0

> <i_epik_Tot_abs_Q>
0

$$$$
