4zji_ligand
                    3D
 Schrodinger Suite 2020-3.
 49 52  0  0  1  0            999 V2000
   13.0360   47.2140   46.8810 C   0  0  0  0  0  0
   11.0250   45.9840   46.0370 C   0  0  0  0  0  0
   10.5110   45.8030   47.3270 C   0  0  0  0  0  0
   10.7390   50.1360   43.4240 C   0  0  0  0  0  0
   11.1680   50.3800   44.7080 C   0  0  0  0  0  0
   11.6340   49.3260   45.4760 C   0  0  0  0  0  0
   11.6780   48.0270   44.9600 C   0  0  0  0  0  0
   12.9000   47.0450   41.2760 C   0  0  0  0  0  0
   14.0830   46.1380   41.5550 C   0  0  0  0  0  0
   15.1060   44.0010   41.0960 C   0  0  0  0  0  0
   12.7040   44.2120   41.2090 C   0  0  0  0  0  0
   11.5070   45.1120   40.9400 C   0  0  0  0  0  0
    9.9980   51.4150   42.5160 Cl  0  0  0  0  0  0
   10.7980   48.8770   42.8690 C   0  0  0  0  0  0
   12.0710   46.9360   45.7990 N   0  0  0  0  0  0
   13.9170   46.0040   47.2680 C   0  0  0  0  0  0
   11.2610   47.8050   43.6330 C   0  0  0  0  0  0
   11.2470   46.4460   43.0290 C   0  0  0  0  0  0
   11.6560   46.3760   41.6800 N   0  0  0  0  0  0
   13.9520   44.8740   40.8320 N   0  3  0  0  0  0
   10.8940   45.3580   43.6200 N   0  0  0  0  0  0
   10.4410   45.2890   44.9550 C   0  0  0  0  0  0
    9.3590   44.4330   45.1920 C   0  0  0  0  0  0
    8.9100   44.2790   46.4810 C   0  0  0  0  0  0
    7.9070   43.3900   46.7040 F   0  0  0  0  0  0
    9.4520   44.9410   47.5540 C   0  0  0  0  0  0
   13.7146   48.0214   46.5686 H   0  0  0  0  0  0
   12.4928   47.5215   47.7868 H   0  0  0  0  0  0
   10.9503   46.3477   48.1627 H   0  0  0  0  0  0
   11.1415   51.3904   45.1159 H   0  0  0  0  0  0
   11.9709   49.5113   46.4959 H   0  0  0  0  0  0
   13.0124   47.9797   41.8450 H   0  0  0  0  0  0
   12.8584   47.2731   40.2007 H   0  0  0  0  0  0
   15.0101   46.6352   41.2335 H   0  0  0  0  0  0
   14.1358   45.9253   42.6330 H   0  0  0  0  0  0
   16.0318   44.5191   40.8052 H   0  0  0  0  0  0
   15.0057   43.0741   40.5123 H   0  0  0  0  0  0
   15.1435   43.7570   42.1679 H   0  0  0  0  0  0
   12.7446   43.9663   42.2804 H   0  0  0  0  0  0
   12.6052   43.2857   40.6239 H   0  0  0  0  0  0
   11.4444   45.3267   39.8630 H   0  0  0  0  0  0
   10.5868   44.6058   41.2670 H   0  0  0  0  0  0
   10.4843   48.7185   41.8372 H   0  0  0  0  0  0
   14.6041   46.2944   48.0764 H   0  0  0  0  0  0
   14.4977   45.6783   46.3924 H   0  0  0  0  0  0
   13.2759   45.1784   47.6106 H   0  0  0  0  0  0
   13.9227   45.0883   39.7535 H   0  0  0  0  0  0
    8.8822   43.8992   44.3699 H   0  0  0  0  0  0
    9.0586   44.7918   48.5595 H   0  0  0  0  0  0
  1 15  1  0  0  0
  1 16  1  0  0  0
  1 27  1  0  0  0
  1 28  1  0  0  0
  2  3  2  0  0  0
  2 15  1  0  0  0
  2 22  1  0  0  0
  3 26  1  0  0  0
  3 29  1  0  0  0
  4  5  2  0  0  0
  4 13  1  0  0  0
  4 14  1  0  0  0
  5  6  1  0  0  0
  5 30  1  0  0  0
  6  7  2  0  0  0
  6 31  1  0  0  0
  7 15  1  0  0  0
  7 17  1  0  0  0
  8  9  1  0  0  0
  8 19  1  0  0  0
  8 32  1  0  0  0
  8 33  1  0  0  0
  9 20  1  0  0  0
  9 34  1  0  0  0
  9 35  1  0  0  0
 10 20  1  0  0  0
 10 36  1  0  0  0
 10 37  1  0  0  0
 10 38  1  0  0  0
 11 12  1  0  0  0
 11 20  1  0  0  0
 11 39  1  0  0  0
 11 40  1  0  0  0
 12 19  1  0  0  0
 12 41  1  0  0  0
 12 42  1  0  0  0
 14 17  2  0  0  0
 14 43  1  0  0  0
 16 44  1  0  0  0
 16 45  1  0  0  0
 16 46  1  0  0  0
 17 18  1  0  0  0
 18 19  1  0  0  0
 18 21  2  0  0  0
 20 47  1  0  0  0
 21 22  1  0  0  0
 22 23  2  0  0  0
 23 24  1  0  0  0
 23 48  1  0  0  0
 24 25  1  0  0  0
 24 26  2  0  0  0
 26 49  1  0  0  0
M  CHG  1  20   1
M  END
> <s_m_source_file>
../4zji_ligand.sdf

> <i_m_source_file_index>
1

> <s_epik_input>
W0NIMl0xW0NIMl1bTkgrXShbQ0gzXSlbQ0gyXVtDSDJdTjFDKGMyYyhOM1tDSDJdW0NIM10pW2NIXVtjSF1jKENsKVtjSF0yKT1OYyhjMzQpW2NIXWMoRilbY0hdW2NIXTQ=

> <s_epik_cmdline>
J2VwaWtfYXBwJywgJy1pbWFlJywgJ2xpZ2FuZF9wcm8ubWFlJywgJy1vbWFlJywgJ2xpZ2FuZF9wcmVwLm1hZScsICctbXMnLCAnMScsICctcGgnLCAnNycsICctcGh0JywgJzAuNScsICctbnQn

> <r_epik_Ionization_Penalty>
  0.1233

> <r_epik_Ionization_Penalty_Charging>
  0.1229

> <r_epik_Ionization_Penalty_Neutral>
  0.0004

> <r_epik_State_Penalty>
  0.1124

> <r_epik_Charging_Adjusted_Penalty>
0.235299743464356

> <i_epik_Tot_Q>
1

> <i_epik_Tot_abs_Q>
1

> <s_epik_Chemistry_Notes>
This compound has an imine and may undergo hydrolysis.

$$$$
