4zjj_ligand
                    3D
 Schrodinger Suite 2020-3.
 61 64  0  0  1  0            999 V2000
   13.4030   46.4810   47.1040 C   0  0  0  0  0  0
   11.3400   45.3200   46.2940 C   0  0  0  0  0  0
   10.8480   45.1040   47.5840 C   0  0  0  0  0  0
   14.1050   44.7730   39.7490 C   0  0  0  0  0  0
   13.1240   43.5600   41.6050 C   0  0  0  0  0  0
   15.6010   43.5640   41.3550 C   0  0  0  0  0  0
   18.1490   43.6830   40.8100 C   0  0  0  0  0  0
   18.5370   44.2620   42.1630 C   0  0  0  0  0  0
   18.9780   44.3300   39.7120 C   0  0  0  0  0  0
   18.3940   42.1860   40.8030 C   0  0  0  0  0  0
   11.6070   47.2040   43.9070 C   0  0  0  0  0  0
   11.1130   48.2910   43.1820 C   0  0  0  0  0  0
   11.0480   49.5370   43.7690 C   0  0  0  0  0  0
   11.4700   49.7460   45.0650 C   0  0  0  0  0  0
   11.9720   48.6760   45.7940 C   0  0  0  0  0  0
   12.0290   47.3930   45.2420 C   0  0  0  0  0  0
   10.3850   50.8690   42.8560 Cl  0  0  0  0  0  0
   12.3870   46.2770   46.0620 N   0  0  0  0  0  0
   14.3330   45.3000   47.2820 C   0  0  0  0  0  0
   11.6120   45.8510   43.2950 C   0  0  0  0  0  0
   11.2130   44.7280   43.8860 N   0  0  0  0  0  0
   10.7180   44.6800   45.2030 C   0  0  0  0  0  0
    9.5810   43.8940   45.4180 C   0  0  0  0  0  0
    9.1300   43.7340   46.7040 C   0  0  0  0  0  0
    8.0380   42.9410   46.9090 F   0  0  0  0  0  0
    9.7380   44.3070   47.7940 C   0  0  0  0  0  0
   12.0710   45.8040   42.0110 N   0  0  0  0  0  0
   12.1370   44.6310   41.1370 C   0  0  1  0  0  0
   14.3600   43.9270   40.9250 N   0  0  0  0  0  0
   12.5900   44.9570   39.7510 C   0  0  0  0  0  0
   15.7630   42.9370   42.3970 O   0  0  0  0  0  0
   16.7150   43.9430   40.5510 N   0  0  0  0  0  0
   14.0234   47.3519   46.8457 H   0  0  0  0  0  0
   12.9073   46.6575   48.0700 H   0  0  0  0  0  0
   11.3454   45.5695   48.4349 H   0  0  0  0  0  0
   14.6394   45.7279   39.8615 H   0  0  0  0  0  0
   14.4596   44.2588   38.8435 H   0  0  0  0  0  0
   13.2176   43.6011   42.7002 H   0  0  0  0  0  0
   12.7571   42.5672   41.3054 H   0  0  0  0  0  0
   19.6029   44.0675   42.3530 H   0  0  0  0  0  0
   17.9319   43.7898   42.9510 H   0  0  0  0  0  0
   18.3566   45.3471   42.1628 H   0  0  0  0  0  0
   20.0454   44.1405   39.8985 H   0  0  0  0  0  0
   18.7940   45.4145   39.7044 H   0  0  0  0  0  0
   18.6944   43.9031   38.7387 H   0  0  0  0  0  0
   19.4588   41.9878   40.9951 H   0  0  0  0  0  0
   18.1154   41.7735   39.8221 H   0  0  0  0  0  0
   17.7854   41.7112   41.5867 H   0  0  0  0  0  0
   10.7793   48.1544   42.1534 H   0  0  0  0  0  0
   11.4103   50.7385   45.5116 H   0  0  0  0  0  0
   12.3268   48.8390   46.8117 H   0  0  0  0  0  0
   15.0626   45.5240   48.0742 H   0  0  0  0  0  0
   14.8642   45.1061   46.3385 H   0  0  0  0  0  0
   13.7480   44.4117   47.5627 H   0  0  0  0  0  0
    9.0652   43.4196   44.5832 H   0  0  0  0  0  0
    9.3547   44.1375   48.8002 H   0  0  0  0  0  0
   12.4159   46.7824   41.6454 H   0  0  0  0  0  0
   11.0873   44.3040   41.1706 H   0  0  0  0  0  0
   12.3466   45.9969   39.4878 H   0  0  0  0  0  0
   12.1370   44.2768   39.0147 H   0  0  0  0  0  0
   16.4097   44.4893   39.6464 H   0  0  0  0  0  0
  1 18  1  0  0  0
  1 19  1  0  0  0
  1 33  1  0  0  0
  1 34  1  0  0  0
  2  3  2  0  0  0
  2 18  1  0  0  0
  2 22  1  0  0  0
  3 26  1  0  0  0
  3 35  1  0  0  0
  4 29  1  0  0  0
  4 30  1  0  0  0
  4 36  1  0  0  0
  4 37  1  0  0  0
  5 28  1  0  0  0
  5 29  1  0  0  0
  5 38  1  0  0  0
  5 39  1  0  0  0
  6 29  1  0  0  0
  6 31  2  0  0  0
  6 32  1  0  0  0
  7  8  1  0  0  0
  7  9  1  0  0  0
  7 10  1  0  0  0
  7 32  1  0  0  0
  8 40  1  0  0  0
  8 41  1  0  0  0
  8 42  1  0  0  0
  9 43  1  0  0  0
  9 44  1  0  0  0
  9 45  1  0  0  0
 10 46  1  0  0  0
 10 47  1  0  0  0
 10 48  1  0  0  0
 11 12  2  0  0  0
 11 16  1  0  0  0
 11 20  1  0  0  0
 12 13  1  0  0  0
 12 49  1  0  0  0
 13 14  2  0  0  0
 13 17  1  0  0  0
 14 15  1  0  0  0
 14 50  1  0  0  0
 15 16  2  0  0  0
 15 51  1  0  0  0
 16 18  1  0  0  0
 19 52  1  0  0  0
 19 53  1  0  0  0
 19 54  1  0  0  0
 20 21  2  0  0  0
 20 27  1  0  0  0
 21 22  1  0  0  0
 22 23  2  0  0  0
 23 24  1  0  0  0
 23 55  1  0  0  0
 24 25  1  0  0  0
 24 26  2  0  0  0
 26 56  1  0  0  0
 27 28  1  0  0  0
 27 57  1  0  0  0
 28 30  1  0  0  0
 28 58  1  0  0  0
 30 59  1  0  0  0
 30 60  1  0  0  0
 32 61  1  0  0  0
M  END
> <s_m_source_file>
../4zjj_ligand.sdf

> <i_m_source_file_index>
1

> <s_epik_input>
W2NIXTFbY0hdYyhGKVtjSF1jKGMxMilOPUMoYzNjKE4yW0NIMl1bQ0gzXSlbY0hdW2NIXWMoQ2wpW2NIXTMpW05IXVtDQEBIXTRbQ0gyXU4oW0NIMl1bQ0gyXTQpQyg9TylbTkhdQyhbQ0gzXSkoW0NIM10pW0NIM10=

> <s_epik_cmdline>
J2VwaWtfYXBwJywgJy1pbWFlJywgJ2xpZ2FuZF9wcm8ubWFlJywgJy1vbWFlJywgJ2xpZ2FuZF9wcmVwLm1hZScsICctbXMnLCAnMScsICctcGgnLCAnNycsICctcGh0JywgJzAuNScsICctbnQn

> <r_epik_Ionization_Penalty>
  0.1707

> <r_epik_Ionization_Penalty_Charging>
  0.0000

> <r_epik_Ionization_Penalty_Neutral>
  0.1707

> <r_epik_State_Penalty>
  0.2769

> <r_epik_Charging_Adjusted_Penalty>
0.276938320892433

> <i_epik_Tot_Q>
0

> <i_epik_Tot_abs_Q>
0

> <s_epik_Chemistry_Notes>
This compound has an imine and may undergo hydrolysis.

$$$$
