4zjr_ligand
                    3D
 Schrodinger Suite 2020-3.
 50 52  0  0  1  0            999 V2000
   -7.8050   32.6800    6.3080 O   0  0  0  0  0  0
   -9.0470   32.7460    6.3530 C   0  0  0  0  0  0
   -9.6940   33.9170    6.3410 N   0  0  0  0  0  0
   -9.8250   31.4770    6.4010 C   0  0  0  0  0  0
  -11.2250   31.4510    6.4980 C   0  0  0  0  0  0
  -11.9380   30.2510    6.5230 C   0  0  0  0  0  0
  -11.2400   29.0700    6.4410 C   0  0  0  0  0  0
  -12.0860   27.4990    6.4940 Cl  0  0  0  0  0  0
   -9.1170   30.2940    6.2790 C   0  0  0  0  0  0
   -9.7720   29.0990    6.2910 C   0  0  0  0  0  0
   -8.9790   27.8710    6.1860 C   0  0  0  0  0  0
   -8.3100   27.5440    5.0140 C   0  0  0  0  0  0
   -7.5370   26.3700    4.9750 C   0  0  0  0  0  0
   -6.8280   25.9100    3.9250 O   0  0  0  0  0  0
   -6.7230   26.5590    2.6840 C   0  0  0  0  0  0
   -6.0530   25.5400    1.7660 C   0  0  0  0  0  0
   -6.4870   25.9210    0.6020 F   0  0  0  0  0  0
   -4.7270   25.6140    1.7450 F   0  0  0  0  0  0
   -6.4200   24.2970    2.1260 F   0  0  0  0  0  0
   -7.4970   25.5120    6.1470 C   0  0  0  0  0  0
   -8.1910   25.8820    7.2780 C   0  0  0  0  0  0
   -8.9190   27.0500    7.2980 C   0  0  0  0  0  0
   -6.7430   24.3710    6.1250 N   0  0  0  0  0  0
   -5.2870   24.4560    5.8620 C   0  0  0  0  0  0
   -7.3540   23.2560    6.4140 C   0  0  0  0  0  0
   -8.5640   23.2030    6.3920 O   0  0  0  0  0  0
   -6.4310   22.1170    6.7240 C   0  0  0  0  0  0
   -5.9100   21.8370    8.0830 C   0  0  0  0  0  0
   -6.3610   22.7620    9.5380 Cl  0  0  0  0  0  0
   -5.0370   20.7960    8.2990 C   0  0  0  0  0  0
   -4.6160   20.0390    7.2330 C   0  0  0  0  0  0
   -5.0490   20.2600    5.9170 C   0  0  0  0  0  0
   -5.9300   21.2770    5.6030 C   0  0  0  0  0  0
   -6.3250   21.4670    4.3110 F   0  0  0  0  0  0
   -9.1265   34.8586    6.3056 H   0  0  0  0  0  0
  -10.7935   33.9382    6.3665 H   0  0  0  0  0  0
  -11.7702   32.3931    6.5554 H   0  0  0  0  0  0
  -13.0249   30.2508    6.6058 H   0  0  0  0  0  0
   -8.0324   30.3182    6.1730 H   0  0  0  0  0  0
   -8.3829   28.1877    4.1374 H   0  0  0  0  0  0
   -7.7270   26.8313    2.3266 H   0  0  0  0  0  0
   -6.1145   27.4685    2.7962 H   0  0  0  0  0  0
   -8.1635   25.2458    8.1627 H   0  0  0  0  0  0
   -9.4562   27.3323    8.2034 H   0  0  0  0  0  0
   -5.0143   25.4989    5.6428 H   0  0  0  0  0  0
   -5.0324   23.8215    5.0003 H   0  0  0  0  0  0
   -4.7337   24.1107    6.7478 H   0  0  0  0  0  0
   -4.6830   20.5742    9.3058 H   0  0  0  0  0  0
   -3.9119   19.2279    7.4184 H   0  0  0  0  0  0
   -4.6807   19.6124    5.1213 H   0  0  0  0  0  0
  1  2  2  0  0  0
  2  3  1  0  0  0
  2  4  1  0  0  0
  3 35  1  0  0  0
  3 36  1  0  0  0
  4  5  2  0  0  0
  4  9  1  0  0  0
  5  6  1  0  0  0
  5 37  1  0  0  0
  6  7  2  0  0  0
  6 38  1  0  0  0
  7  8  1  0  0  0
  7 10  1  0  0  0
  9 10  2  0  0  0
  9 39  1  0  0  0
 10 11  1  0  0  0
 11 12  2  0  0  0
 11 22  1  0  0  0
 12 13  1  0  0  0
 12 40  1  0  0  0
 13 14  1  0  0  0
 13 20  2  0  0  0
 14 15  1  0  0  0
 15 16  1  0  0  0
 15 41  1  0  0  0
 15 42  1  0  0  0
 16 17  1  0  0  0
 16 18  1  0  0  0
 16 19  1  0  0  0
 20 21  1  0  0  0
 20 23  1  0  0  0
 21 22  2  0  0  0
 21 43  1  0  0  0
 22 44  1  0  0  0
 23 24  1  0  0  0
 23 25  1  0  0  0
 24 45  1  0  0  0
 24 46  1  0  0  0
 24 47  1  0  0  0
 25 26  2  0  0  0
 25 27  1  0  0  0
 27 28  2  0  0  0
 27 33  1  0  0  0
 28 29  1  0  0  0
 28 30  1  0  0  0
 30 31  2  0  0  0
 30 48  1  0  0  0
 31 32  1  0  0  0
 31 49  1  0  0  0
 32 33  2  0  0  0
 32 50  1  0  0  0
 33 34  1  0  0  0
M  END
> <s_m_source_file>
../4zjr_ligand.sdf

> <i_m_source_file_index>
1

> <s_epik_input>
Tz1DKFtOSDJdKWMxW2NIXVtjSF1jKENsKWMoW2NIXTEpLWMyW2NIXWMoT1tDSDJdQyhGKShGKUYpYyhbY0hdW2NIXTIpTihbQ0gzXSlDKD1PKWMzYyhDbClbY0hdW2NIXVtjSF1jM0Y=

> <s_epik_cmdline>
J2VwaWtfYXBwJywgJy1pbWFlJywgJ2xpZ2FuZF9wcm8ubWFlJywgJy1vbWFlJywgJ2xpZ2FuZF9wcmVwLm1hZScsICctbXMnLCAnMScsICctcGgnLCAnNycsICctcGh0JywgJzAuNScsICctbnQn

> <r_lp_tautomer_probability>
1

> <r_epik_Ionization_Penalty>
  0.0000

> <r_epik_Ionization_Penalty_Charging>
  0.0000

> <r_epik_Ionization_Penalty_Neutral>
  0.0000

> <r_epik_State_Penalty>
 -0.0000

> <r_epik_Charging_Adjusted_Penalty>
0

> <i_epik_Tot_Q>
0

> <i_epik_Tot_abs_Q>
0

$$$$
