4zjw_ligand
                    3D
 Schrodinger Suite 2020-3.
 52 55  0  0  1  0            999 V2000
  -22.9070   10.6370   50.6060 C   0  0  0  0  0  0
  -21.9240   11.7680   50.9430 C   0  0  1  0  0  0
  -22.6610   12.9400   51.5820 C   0  0  0  0  0  0
  -20.7490   11.3270   51.7720 C   0  0  0  0  0  0
  -24.4780    7.5290   49.4520 C   0  0  0  0  0  0
  -22.7890    9.3740   48.7500 C   0  0  0  0  0  0
  -23.8660    8.4240   48.3810 C   0  0  0  0  0  0
  -24.2570    8.3930   47.0450 C   0  0  0  0  0  0
  -22.2060   10.2350   47.8300 C   0  0  0  0  0  0
  -22.6210   10.1590   46.5190 C   0  0  0  0  0  0
  -23.6140    9.2450   46.1260 C   0  0  0  0  0  0
  -25.1810   10.6430   42.9840 C   0  0  0  0  0  0
  -25.0440    9.5760   42.0860 C   0  0  0  0  0  0
  -24.4290    8.3750   42.4690 C   0  0  0  0  0  0
  -24.3380    7.2460   41.4930 C   0  0  0  0  0  0
  -23.9430    8.2120   43.7810 C   0  0  0  0  0  0
  -22.2570   13.5130   52.7870 C   0  0  0  0  0  0
  -21.1550   13.0170   53.4730 C   0  0  0  0  0  0
  -20.4080   11.9520   52.9700 C   0  0  0  0  0  0
  -24.1870    6.1500   41.9720 O   0  0  0  0  0  0
  -24.4810    7.3920   40.1710 N   0  0  0  0  0  0
  -24.4340    6.3760   39.1230 C   0  0  0  0  0  0
  -24.7140   10.5400   44.2860 C   0  0  0  0  0  0
  -24.9200   11.9290   45.4250 Cl  0  0  0  0  0  0
  -24.0530    9.2610   44.7020 C   0  0  0  0  0  0
  -23.6750    7.4920   50.7730 C   0  0  0  0  0  0
  -22.2780    8.1380   50.7350 C   0  0  0  0  0  0
  -22.5470    9.4150   50.0980 N   0  0  0  0  0  0
  -24.1180   10.8910   50.7050 O   0  0  0  0  0  0
  -23.7550   13.5040   51.0190 F   0  0  0  0  0  0
  -19.6690    9.9880   51.2720 Cl  0  0  0  0  0  0
  -21.4690   12.1019   49.9988 H   0  0  0  0  0  0
  -25.4888    7.8878   49.6959 H   0  0  0  0  0  0
  -24.5359    6.4963   49.0777 H   0  0  0  0  0  0
  -25.0484    7.7198   46.7154 H   0  0  0  0  0  0
  -21.4424   10.9500   48.1363 H   0  0  0  0  0  0
  -22.1727   10.8175   45.7750 H   0  0  0  0  0  0
  -25.6604   11.5651   42.6553 H   0  0  0  0  0  0
  -25.4230    9.6815   41.0695 H   0  0  0  0  0  0
  -23.4818    7.2704   44.0790 H   0  0  0  0  0  0
  -22.8122   14.3663   53.2037 H   0  0  0  0  0  0
  -20.4079   13.8154   53.5929 H   0  0  0  0  0  0
  -21.4708   12.6586   54.4639 H   0  0  0  0  0  0
  -19.5330   11.6073   53.5406 H   0  0  0  0  0  0
  -24.6547    8.4459   39.9080 H   0  0  0  0  0  0
  -24.5920    6.8517   38.1438 H   0  0  0  0  0  0
  -25.2229    5.6301   39.2999 H   0  0  0  0  0  0
  -23.4517    5.8810   39.1360 H   0  0  0  0  0  0
  -24.2346    8.0230   51.5572 H   0  0  0  0  0  0
  -23.5187    6.4467   51.0780 H   0  0  0  0  0  0
  -21.8943    8.2424   51.7606 H   0  0  0  0  0  0
  -21.5959    7.5024   50.1512 H   0  0  0  0  0  0
  1  2  1  0  0  0
  1 28  1  0  0  0
  1 29  2  0  0  0
  2  3  1  0  0  0
  2  4  1  0  0  0
  2 32  1  0  0  0
  3 17  2  0  0  0
  3 30  1  0  0  0
  4 19  2  0  0  0
  4 31  1  0  0  0
  5  7  1  0  0  0
  5 26  1  0  0  0
  5 33  1  0  0  0
  5 34  1  0  0  0
  6  7  2  0  0  0
  6  9  1  0  0  0
  6 28  1  0  0  0
  7  8  1  0  0  0
  8 11  2  0  0  0
  8 35  1  0  0  0
  9 10  2  0  0  0
  9 36  1  0  0  0
 10 11  1  0  0  0
 10 37  1  0  0  0
 11 25  1  0  0  0
 12 13  2  0  0  0
 12 23  1  0  0  0
 12 38  1  0  0  0
 13 14  1  0  0  0
 13 39  1  0  0  0
 14 15  1  0  0  0
 14 16  2  0  0  0
 15 20  2  0  0  0
 15 21  1  0  0  0
 16 25  1  0  0  0
 16 40  1  0  0  0
 17 18  1  0  0  0
 17 41  1  0  0  0
 18 19  1  0  0  0
 18 42  1  0  0  0
 18 43  1  0  0  0
 19 44  1  0  0  0
 21 22  1  0  0  0
 21 45  1  0  0  0
 22 46  1  0  0  0
 22 47  1  0  0  0
 22 48  1  0  0  0
 23 24  1  0  0  0
 23 25  2  0  0  0
 26 27  1  0  0  0
 26 49  1  0  0  0
 26 50  1  0  0  0
 27 28  1  0  0  0
 27 51  1  0  0  0
 27 52  1  0  0  0
M  END
> <s_m_source_file>
../4zjw_ligand.sdf

> <i_m_source_file_index>
1

> <s_epik_input>
Q2xDMT1bQ0hdW0NIMl1bQ0hdPUMoRilbQ0BASF0xQyg9TylOMltDSDJdW0NIMl1bQ0gyXWMoYzIzKVtjSF1jKFtjSF1bY0hdMyktYyhbY0hdNCljKENsKVtjSF1bY0hdYzRDKD1PKVtOSF1bQ0gzXQ==

> <s_epik_cmdline>
J2VwaWtfYXBwJywgJy1pbWFlJywgJ2xpZ2FuZF9wcm8ubWFlJywgJy1vbWFlJywgJ2xpZ2FuZF9wcmVwLm1hZScsICctbXMnLCAnMScsICctcGgnLCAnNycsICctcGh0JywgJzAuNScsICctbnQn

> <r_lp_tautomer_probability>
1

> <r_epik_Ionization_Penalty>
  0.0000

> <r_epik_Ionization_Penalty_Charging>
  0.0000

> <r_epik_Ionization_Penalty_Neutral>
  0.0000

> <r_epik_State_Penalty>
 -0.0000

> <r_epik_Charging_Adjusted_Penalty>
0

> <i_epik_Tot_Q>
0

> <i_epik_Tot_abs_Q>
0

$$$$
