4zl4_ligand
                    3D
 Schrodinger Suite 2020-3.
100101  0  0  1  0            999 V2000
    0.5020  107.3970   39.2230 C   0  0  0  0  0  0
   -1.5940  104.1680   40.9690 C   0  0  0  0  0  0
   -0.9180  105.3330   41.0340 O   0  0  0  0  0  0
   -1.5560  106.3500   40.2500 C   0  0  0  0  0  0
   -0.7000  106.6940   39.0480 C   0  0  0  0  0  0
   -1.1080  106.3070   37.7570 C   0  0  0  0  0  0
   -0.3160  106.6280   36.6440 C   0  0  0  0  0  0
    0.8850  107.3330   36.8240 C   0  0  0  0  0  0
    1.2960  107.7180   38.1110 C   0  0  0  0  0  0
   -2.8240  104.1470   40.9980 O   0  0  0  0  0  0
   -0.8960  102.9900   40.8630 N   0  0  0  0  0  0
   -1.6350  101.7240   40.8130 C   0  0  1  0  0  0
   -0.8570  100.6740   40.0130 C   0  0  0  0  0  0
   -0.3900  101.2040   38.6590 C   0  0  0  0  0  0
   -1.7470  101.0840   42.2230 C   0  0  0  0  0  0
   -1.5470  101.5320   37.9050 O   0  0  0  0  0  0
   -2.4750  100.4880   37.8700 N   0  0  0  0  0  0
   -2.6660   99.8710   36.6860 C   0  0  0  0  0  0
   -1.9660  100.2500   35.6040 N   0  0  0  0  0  0
   -3.5590   98.8760   36.5760 N   0  3  0  0  0  0
   -0.9720  101.3290   43.1480 O   0  0  0  0  0  0
   -2.7640  100.1870   42.4370 N   0  0  0  0  0  0
   -2.9280   99.4850   43.7040 C   0  0  2  0  0  0
   -3.4310   98.0880   43.2350 C   0  0  0  0  0  0
   -4.6250   97.8800   42.9900 O   0  0  0  0  0  0
   -3.9450  100.1490   44.6340 C   0  0  0  0  0  0
   -3.7500   99.4340   45.9920 C   0  0  0  0  0  0
   -3.6520  101.6620   44.7740 C   0  0  0  0  0  0
   -2.5120   97.0820   43.0550 N   0  0  0  0  0  0
   -2.9400   95.7660   42.5640 C   0  0  1  0  0  0
   -2.2220   95.4950   41.2210 C   0  0  0  0  0  0
   -2.4610   96.6040   40.1770 C   0  0  0  0  0  0
   -1.5460   96.3720   38.9600 C   0  0  0  0  0  0
   -3.9290   96.6230   39.7060 C   0  0  0  0  0  0
   -2.5290   94.6740   43.5630 C   0  0  1  0  0  0
   -1.1600   94.8820   43.9100 O   0  0  0  0  0  0
   -3.4250   94.7120   44.8140 C   0  0  0  0  0  0
   -4.7930   94.0410   44.5080 C   0  0  0  0  0  0
   -5.7970   94.7280   44.3070 O   0  0  0  0  0  0
   -6.2320   91.5420   46.6010 C   0  0  0  0  0  0
   -7.3760   92.1860   47.0820 C   0  0  0  0  0  0
   -7.3230   92.8510   48.3150 C   0  0  0  0  0  0
   -6.1280   92.8730   49.0520 C   0  0  0  0  0  0
   -4.9820   92.2340   48.5620 C   0  0  0  0  0  0
   -5.0370   91.5680   47.3320 C   0  0  0  0  0  0
   -6.2870   90.8410   45.2460 C   0  0  0  0  0  0
   -6.1430   91.9710   44.2110 C   0  0  0  0  0  0
   -4.8740   92.6610   44.4750 N   0  0  0  0  0  0
    0.8190  107.6938   40.2228 H   0  0  0  0  0  0
   -2.5348  105.9862   39.9041 H   0  0  0  0  0  0
   -1.6961  107.2521   40.8636 H   0  0  0  0  0  0
   -2.0397  105.7577   37.6221 H   0  0  0  0  0  0
   -0.6318  106.3313   35.6438 H   0  0  0  0  0  0
    1.5016  107.5828   35.9606 H   0  0  0  0  0  0
    2.2293  108.2647   38.2457 H   0  0  0  0  0  0
    0.2030  102.9876   40.8157 H   0  0  0  0  0  0
   -2.5954  102.0138   40.3618 H   0  0  0  0  0  0
    0.0320  100.3642   40.5820 H   0  0  0  0  0  0
   -1.5000   99.7999   39.8327 H   0  0  0  0  0  0
    0.2350  102.0964   38.8104 H   0  0  0  0  0  0
    0.1964  100.4287   38.1442 H   0  0  0  0  0  0
   -3.0144  100.2007   38.7846 H   0  0  0  0  0  0
   -1.2310  101.0647   35.6821 H   0  0  0  0  0  0
   -2.1278   99.7457   34.6399 H   0  0  0  0  0  0
   -4.1381   98.5570   37.4552 H   0  0  0  0  0  0
   -3.4689  100.0053   41.6123 H   0  0  0  0  0  0
   -1.9826   99.5066   44.2659 H   0  0  0  0  0  0
   -4.9706  100.0577   44.2469 H   0  0  0  0  0  0
   -3.9619   98.3609   45.8751 H   0  0  0  0  0  0
   -4.4372   99.8647   46.7351 H   0  0  0  0  0  0
   -2.7122   99.5680   46.3312 H   0  0  0  0  0  0
   -3.7951  102.1547   43.8010 H   0  0  0  0  0  0
   -2.6138  101.8050   45.1083 H   0  0  0  0  0  0
   -4.3388  102.1017   45.5122 H   0  0  0  0  0  0
   -1.4513   97.2665   43.2807 H   0  0  0  0  0  0
   -4.0346   95.7990   42.4607 H   0  0  0  0  0  0
   -1.1377   95.4251   41.3925 H   0  0  0  0  0  0
   -2.5874   94.5493   40.7941 H   0  0  0  0  0  0
   -2.2313   97.5711   40.6481 H   0  0  0  0  0  0
   -0.4962   96.3571   39.2881 H   0  0  0  0  0  0
   -1.6912   97.1838   38.2321 H   0  0  0  0  0  0
   -1.7971   95.4094   38.4907 H   0  0  0  0  0  0
   -4.5892   96.7884   40.5702 H   0  0  0  0  0  0
   -4.1755   95.6599   39.2352 H   0  0  0  0  0  0
   -4.0696   97.4343   38.9766 H   0  0  0  0  0  0
   -2.5755   93.6709   43.1139 H   0  0  0  0  0  0
   -0.3881   94.8839   43.1263 H   0  0  0  0  0  0
   -2.9318   94.1707   45.6348 H   0  0  0  0  0  0
   -3.5932   95.7571   45.1130 H   0  0  0  0  0  0
   -8.3000   92.1712   46.5040 H   0  0  0  0  0  0
   -8.2105   93.3516   48.7021 H   0  0  0  0  0  0
   -6.0920   93.3902   50.0108 H   0  0  0  0  0  0
   -4.0544   92.2551   49.1341 H   0  0  0  0  0  0
   -4.1495   91.0692   46.9426 H   0  0  0  0  0  0
   -5.4629   90.1159   45.1746 H   0  0  0  0  0  0
   -7.2478   90.3152   45.1439 H   0  0  0  0  0  0
   -6.1412   91.5423   43.1980 H   0  0  0  0  0  0
   -6.9862   92.6702   44.3118 H   0  0  0  0  0  0
   -3.9579   92.0786   44.6525 H   0  0  0  0  0  0
   -3.7122   98.3791   35.6067 H   0  0  0  0  0  0
  1  5  2  0  0  0
  1  9  1  0  0  0
  1 49  1  0  0  0
  2  3  1  0  0  0
  2 10  2  0  0  0
  2 11  1  0  0  0
  3  4  1  0  0  0
  4  5  1  0  0  0
  4 50  1  0  0  0
  4 51  1  0  0  0
  5  6  1  0  0  0
  6  7  2  0  0  0
  6 52  1  0  0  0
  7  8  1  0  0  0
  7 53  1  0  0  0
  8  9  2  0  0  0
  8 54  1  0  0  0
  9 55  1  0  0  0
 11 12  1  0  0  0
 11 56  1  0  0  0
 12 13  1  0  0  0
 12 15  1  0  0  0
 12 57  1  0  0  0
 13 14  1  0  0  0
 13 58  1  0  0  0
 13 59  1  0  0  0
 14 16  1  0  0  0
 14 60  1  0  0  0
 14 61  1  0  0  0
 15 21  2  0  0  0
 15 22  1  0  0  0
 16 17  1  0  0  0
 17 18  1  0  0  0
 17 62  1  0  0  0
 18 19  1  0  0  0
 18 20  2  0  0  0
 19 63  1  0  0  0
 19 64  1  0  0  0
 20 65  1  0  0  0
 20100  1  0  0  0
 22 23  1  0  0  0
 22 66  1  0  0  0
 23 24  1  0  0  0
 23 26  1  0  0  0
 23 67  1  0  0  0
 24 25  2  0  0  0
 24 29  1  0  0  0
 26 27  1  0  0  0
 26 28  1  0  0  0
 26 68  1  0  0  0
 27 69  1  0  0  0
 27 70  1  0  0  0
 27 71  1  0  0  0
 28 72  1  0  0  0
 28 73  1  0  0  0
 28 74  1  0  0  0
 29 30  1  0  0  0
 29 75  1  0  0  0
 30 31  1  0  0  0
 30 35  1  0  0  0
 30 76  1  0  0  0
 31 32  1  0  0  0
 31 77  1  0  0  0
 31 78  1  0  0  0
 32 33  1  0  0  0
 32 34  1  0  0  0
 32 79  1  0  0  0
 33 80  1  0  0  0
 33 81  1  0  0  0
 33 82  1  0  0  0
 34 83  1  0  0  0
 34 84  1  0  0  0
 34 85  1  0  0  0
 35 36  1  0  0  0
 35 37  1  0  0  0
 35 86  1  0  0  0
 36 87  1  0  0  0
 37 38  1  0  0  0
 37 88  1  0  0  0
 37 89  1  0  0  0
 38 39  2  0  0  0
 38 48  1  0  0  0
 40 41  2  0  0  0
 40 45  1  0  0  0
 40 46  1  0  0  0
 41 42  1  0  0  0
 41 90  1  0  0  0
 42 43  2  0  0  0
 42 91  1  0  0  0
 43 44  1  0  0  0
 43 92  1  0  0  0
 44 45  2  0  0  0
 44 93  1  0  0  0
 45 94  1  0  0  0
 46 47  1  0  0  0
 46 95  1  0  0  0
 46 96  1  0  0  0
 47 48  1  0  0  0
 47 97  1  0  0  0
 47 98  1  0  0  0
 48 99  1  0  0  0
M  CHG  1  20   1
M  END
> <s_m_source_file>
../4zl4_ligand.sdf

> <i_m_source_file_index>
1

> <s_epik_input>
W2NIXTFbY0hdW2NIXVtjSF1bY0hdYzFbQ0gyXU9DKD1PKVtOSF1bQ0BASF0oW0NIMl1bQ0gyXU9bTkhdL0MoW05IMl0pPU5cW0hdKUMoPU8pW05IXVtDQEBIXShbQ0hdKFtDSDNdKVtDSDNdKUMoPU8pW05IXVtDQEBIXShbQ0gyXVtDSF0oW0NIM10pW0NIM10pW0NAQEhdKFtPSF0pW0NIMl1DKD1PKVtOSF1bQ0gyXVtDSDJdYzJbY0hdW2NIXVtjSF1bY0hdW2NIXTI=

> <s_epik_cmdline>
J2VwaWtfYXBwJywgJy1pbWFlJywgJ2xpZ2FuZF9wcm8ubWFlJywgJy1vbWFlJywgJ2xpZ2FuZF9wcmVwLm1hZScsICctbXMnLCAnMScsICctcGgnLCAnNycsICctcGh0JywgJzAuNScsICctbnQn

> <r_epik_Ionization_Penalty>
  0.0914

> <r_epik_Ionization_Penalty_Charging>
  0.0914

> <r_epik_Ionization_Penalty_Neutral>
  0.0000

> <r_epik_State_Penalty>
  0.1160

> <r_epik_Charging_Adjusted_Penalty>
0.207452555595215

> <i_epik_Tot_Q>
1

> <i_epik_Tot_abs_Q>
1

> <s_epik_Chemistry_Notes>
This compound has an ester and may undergo hydrolysis at high or low pH. This compound has an imine and may undergo hydrolysis. This compound has a N-S or N-O group and may undergo hydrolysis at high or low pH.

$$$$
