4zla_ligand
                    3D
 Schrodinger Suite 2020-3.
 46 46  0  0  1  0            999 V2000
   39.3680   15.4580  -14.7910 N   0  3  0  0  0  0
   38.7840   16.6770  -15.1710 C   0  0  2  0  0  0
   39.1510   17.0150  -16.6200 C   0  0  0  0  0  0
   38.2630   16.3430  -17.7960 C   0  0  0  0  0  0
   37.1140   16.9880  -18.2670 C   0  0  0  0  0  0
   38.6540   15.1460  -18.3710 C   0  0  0  0  0  0
   36.3530   16.4250  -19.2980 C   0  0  0  0  0  0
   37.8870   14.5780  -19.4050 C   0  0  0  0  0  0
   36.7410   15.2280  -19.8660 C   0  0  0  0  0  0
   39.3640   17.8320  -14.3230 C   0  0  2  0  0  0
   39.7030   17.4900  -13.0300 O   0  0  0  0  0  0
   38.2780   18.9340  -14.2940 C   0  0  0  0  0  0
   37.1600   18.6610  -13.8220 O   0  0  0  0  0  0
   38.5830   20.2740  -14.8690 N   0  0  0  0  0  0
   37.6360   21.3550  -14.8890 C   0  0  1  0  0  0
   38.3830   22.6300  -14.3390 C   0  0  0  0  0  0
   37.3940   23.7110  -13.9090 C   0  0  0  0  0  0
   36.6630   23.3040  -12.6660 C   0  0  0  0  0  0
   38.1870   25.0000  -13.6240 C   0  0  0  0  0  0
   37.1340   21.5810  -16.2290 C   0  0  0  0  0  0
   35.9120   21.5760  -16.4460 O   0  5  0  0  0  0
   37.8850   21.7750  -17.1600 O   0  0  0  0  0  0
   38.9479   14.6444  -15.4006 H   0  0  0  0  0  0
   39.1577   15.2662  -13.7285 H   0  0  0  0  0  0
   40.4558   15.5084  -14.9463 H   0  0  0  0  0  0
   37.7120   16.4851  -15.0163 H   0  0  0  0  0  0
   39.0647   18.1004  -16.7765 H   0  0  0  0  0  0
   40.1848   16.6968  -16.8202 H   0  0  0  0  0  0
   36.8089   17.9374  -17.8270 H   0  0  0  0  0  0
   39.5563   14.6433  -18.0227 H   0  0  0  0  0  0
   35.4549   16.9311  -19.6521 H   0  0  0  0  0  0
   38.1885   13.6283  -19.8469 H   0  0  0  0  0  0
   36.1532   14.7911  -20.6733 H   0  0  0  0  0  0
   40.3615   18.1289  -14.6793 H   0  0  0  0  0  0
   40.4645   16.7176  -12.8471 H   0  0  0  0  0  0
   39.5885   20.4158  -15.2919 H   0  0  0  0  0  0
   36.7500   21.0428  -14.3167 H   0  0  0  0  0  0
   38.9947   22.3497  -13.4688 H   0  0  0  0  0  0
   39.0318   23.0427  -15.1256 H   0  0  0  0  0  0
   36.6398   23.8538  -14.6969 H   0  0  0  0  0  0
   36.0933   22.3833  -12.8605 H   0  0  0  0  0  0
   35.9723   24.1064  -12.3675 H   0  0  0  0  0  0
   37.3867   23.1235  -11.8575 H   0  0  0  0  0  0
   38.7273   25.3064  -14.5319 H   0  0  0  0  0  0
   38.9073   24.8157  -12.8133 H   0  0  0  0  0  0
   37.4929   25.7986  -13.3233 H   0  0  0  0  0  0
  1  2  1  0  0  0
  1 23  1  0  0  0
  1 24  1  0  0  0
  1 25  1  0  0  0
  2  3  1  0  0  0
  2 10  1  0  0  0
  2 26  1  0  0  0
  3  4  1  0  0  0
  3 27  1  0  0  0
  3 28  1  0  0  0
  4  5  2  0  0  0
  4  6  1  0  0  0
  5  7  1  0  0  0
  5 29  1  0  0  0
  6  8  2  0  0  0
  6 30  1  0  0  0
  7  9  2  0  0  0
  7 31  1  0  0  0
  8  9  1  0  0  0
  8 32  1  0  0  0
  9 33  1  0  0  0
 10 11  1  0  0  0
 10 12  1  0  0  0
 10 34  1  0  0  0
 11 35  1  0  0  0
 12 13  2  0  0  0
 12 14  1  0  0  0
 14 15  1  0  0  0
 14 36  1  0  0  0
 15 16  1  0  0  0
 15 20  1  0  0  0
 15 37  1  0  0  0
 16 17  1  0  0  0
 16 38  1  0  0  0
 16 39  1  0  0  0
 17 18  1  0  0  0
 17 19  1  0  0  0
 17 40  1  0  0  0
 18 41  1  0  0  0
 18 42  1  0  0  0
 18 43  1  0  0  0
 19 44  1  0  0  0
 19 45  1  0  0  0
 19 46  1  0  0  0
 20 21  1  0  0  0
 20 22  2  0  0  0
M  CHG  2   1   1  21  -1
M  END
> <s_m_source_file>
../4zla_ligand.sdf

> <i_m_source_file_index>
1

> <s_epik_input>
W0NIM11bQ0hdKFtDSDNdKVtDSDJdW0NAQEhdKEMoPU8pW09IXSlbTkhdQyg9TylbQ0BASF0oW09IXSlbQ0BIXShbTkgzK10pW0NIMl1jMVtjSF1bY0hdW2NIXVtjSF1bY0hdMQ==

> <s_epik_cmdline>
J2VwaWtfYXBwJywgJy1pbWFlJywgJ2xpZ2FuZF9wcm8ubWFlJywgJy1vbWFlJywgJ2xpZ2FuZF9wcmVwLm1hZScsICctbXMnLCAnMScsICctcGgnLCAnNycsICctcGh0JywgJzAuNScsICctbnQn

> <r_epik_Ionization_Penalty>
  0.0352

> <r_epik_Ionization_Penalty_Charging>
  0.0351

> <r_epik_Ionization_Penalty_Neutral>
  0.0000

> <r_epik_State_Penalty>
  0.0291

> <r_epik_Charging_Adjusted_Penalty>
0.0642799853861943

> <i_epik_Tot_Q>
0

> <i_epik_Tot_abs_Q>
2

$$$$
