4zlo_ligand
                    3D
 Schrodinger Suite 2020-3.
 43 46  0  0  1  0            999 V2000
   43.0550    6.1570  -20.7940 C   0  0  0  0  0  0
   42.4410    5.1790  -19.8020 C   0  0  0  0  0  0
   44.6400    4.8180  -18.8320 C   0  0  0  0  0  0
   41.1140    3.4270  -15.1810 C   0  0  0  0  0  0
   43.3850    4.1640  -15.0990 C   0  0  0  0  0  0
   44.2240    4.2830  -13.9870 C   0  0  0  0  0  0
   45.0820    5.3620  -13.8610 C   0  0  0  0  0  0
   45.0730    6.3140  -14.8440 C   0  0  0  0  0  0
   44.2710    6.2500  -15.9600 C   0  0  0  0  0  0
   43.4220    5.1470  -16.1110 C   0  0  0  0  0  0
   45.8930    7.3900  -14.7120 F   0  0  0  0  0  0
   42.5730    4.9940  -17.3300 C   0  0  0  0  0  0
   43.2320    5.1550  -18.5600 N   0  0  0  0  0  0
   45.2230    5.8050  -19.8380 C   0  0  0  0  0  0
   44.4470    5.8090  -21.0780 N   0  3  0  0  0  0
   45.0250    6.7390  -22.0510 C   0  0  0  0  0  0
   42.4850    3.0750  -15.1640 N   0  0  0  0  0  0
   40.6040    4.2410  -16.2120 C   0  0  0  0  0  0
   41.3330    4.6440  -17.3480 N   0  0  0  0  0  0
   40.2750    2.9850  -14.1550 C   0  0  0  0  0  0
   38.9420    3.3580  -14.1340 C   0  0  0  0  0  0
   38.4770    4.1690  -15.1370 C   0  0  0  0  0  0
   37.1840    4.5730  -15.0910 F   0  0  0  0  0  0
   39.2570    4.6210  -16.1730 C   0  0  0  0  0  0
   42.4855    6.1311  -21.7347 H   0  0  0  0  0  0
   43.0236    7.1733  -20.3742 H   0  0  0  0  0  0
   41.4121    5.4906  -19.5689 H   0  0  0  0  0  0
   42.4280    4.1707  -20.2414 H   0  0  0  0  0  0
   45.2165    4.8692  -17.8966 H   0  0  0  0  0  0
   44.7003    3.8001  -19.2446 H   0  0  0  0  0  0
   44.2023    3.5179  -13.2109 H   0  0  0  0  0  0
   45.7469    5.4509  -13.0019 H   0  0  0  0  0  0
   44.2960    7.0405  -16.7100 H   0  0  0  0  0  0
   45.2078    6.8178  -19.4090 H   0  0  0  0  0  0
   46.2598    5.5212  -20.0715 H   0  0  0  0  0  0
   44.4771    4.7998  -21.5145 H   0  0  0  0  0  0
   44.4254    6.7244  -22.9731 H   0  0  0  0  0  0
   46.0572    6.4355  -22.2799 H   0  0  0  0  0  0
   45.0264    7.7555  -21.6306 H   0  0  0  0  0  0
   42.7815    2.0163  -15.2004 H   0  0  0  0  0  0
   40.6716    2.3438  -13.3678 H   0  0  0  0  0  0
   38.2786    3.0155  -13.3398 H   0  0  0  0  0  0
   38.8365    5.2617  -16.9481 H   0  0  0  0  0  0
  1  2  1  0  0  0
  1 15  1  0  0  0
  1 25  1  0  0  0
  1 26  1  0  0  0
  2 13  1  0  0  0
  2 27  1  0  0  0
  2 28  1  0  0  0
  3 13  1  0  0  0
  3 14  1  0  0  0
  3 29  1  0  0  0
  3 30  1  0  0  0
  4 17  1  0  0  0
  4 18  2  0  0  0
  4 20  1  0  0  0
  5  6  2  0  0  0
  5 10  1  0  0  0
  5 17  1  0  0  0
  6  7  1  0  0  0
  6 31  1  0  0  0
  7  8  2  0  0  0
  7 32  1  0  0  0
  8  9  1  0  0  0
  8 11  1  0  0  0
  9 10  2  0  0  0
  9 33  1  0  0  0
 10 12  1  0  0  0
 12 13  1  0  0  0
 12 19  2  0  0  0
 14 15  1  0  0  0
 14 34  1  0  0  0
 14 35  1  0  0  0
 15 16  1  0  0  0
 15 36  1  0  0  0
 16 37  1  0  0  0
 16 38  1  0  0  0
 16 39  1  0  0  0
 17 40  1  0  0  0
 18 19  1  0  0  0
 18 24  1  0  0  0
 20 21  2  0  0  0
 20 41  1  0  0  0
 21 22  1  0  0  0
 21 42  1  0  0  0
 22 23  1  0  0  0
 22 24  2  0  0  0
 24 43  1  0  0  0
M  CHG  1  15   1
M  END
> <s_m_source_file>
../4zlo_ligand.sdf

> <i_m_source_file_index>
1

> <s_epik_input>
W0NIMl0xW0NIMl1bTkgrXShbQ0gzXSlbQ0gyXVtDSDJdTjFDKGMyYyhbTkhdMylbY0hdW2NIXWMoRilbY0hdMik9TmMoYzM0KVtjSF1jKEYpW2NIXVtjSF00

> <s_epik_cmdline>
J2VwaWtfYXBwJywgJy1pbWFlJywgJ2xpZ2FuZF9wcm8ubWFlJywgJy1vbWFlJywgJ2xpZ2FuZF9wcmVwLm1hZScsICctbXMnLCAnMScsICctcGgnLCAnNycsICctcGh0JywgJzAuNScsICctbnQn

> <r_epik_Ionization_Penalty>
  0.1201

> <r_epik_Ionization_Penalty_Charging>
  0.1199

> <r_epik_Ionization_Penalty_Neutral>
  0.0002

> <r_epik_State_Penalty>
  0.1095

> <r_epik_Charging_Adjusted_Penalty>
0.229426306252069

> <i_epik_Tot_Q>
1

> <i_epik_Tot_abs_Q>
1

> <s_epik_Chemistry_Notes>
This compound has an imine and may undergo hydrolysis.

$$$$
