4zly_ligand
                    3D
 Schrodinger Suite 2020-3.
 22 23  0  0  1  0            999 V2000
   17.1950    4.9150    2.1170 N   0  0  0  0  0  0
   19.4020    5.4900    1.2470 C   0  0  0  0  0  0
   21.7980    6.6420    1.8130 C   0  0  0  0  0  0
   23.0440    7.2380    2.1150 C   0  0  0  0  0  0
   23.6730    7.1930   -0.2320 C   0  0  0  0  0  0
   20.2620    5.7160    0.1480 C   0  0  0  0  0  0
   18.0770    4.8470    1.0930 C   0  0  0  0  0  0
   17.8040    4.2140    0.0700 O   0  0  0  0  0  0
   19.7640    5.8240    2.5000 N   0  0  0  0  0  0
   20.9060    6.3600    2.7900 N   0  0  0  0  0  0
   23.9380    7.4970    1.1070 C   0  0  0  0  0  0
   22.4640    6.6220   -0.5540 C   0  0  0  0  0  0
   21.5210    6.3250    0.4510 C   0  0  0  0  0  0
   19.9030    5.3930   -1.1530 N   0  0  0  0  0  0
   17.4487    5.4823    3.0247 H   0  0  0  0  0  0
   16.2243    4.4030    2.0417 H   0  0  0  0  0  0
   23.2936    7.4909    3.1455 H   0  0  0  0  0  0
   24.4108    7.4046   -1.0059 H   0  0  0  0  0  0
   24.8928    7.9580    1.3599 H   0  0  0  0  0  0
   22.2329    6.3971   -1.5952 H   0  0  0  0  0  0
   18.9279    4.9254   -1.3545 H   0  0  0  0  0  0
   20.5935    5.6046   -1.9827 H   0  0  0  0  0  0
  1  7  1  0  0  0
  1 15  1  0  0  0
  1 16  1  0  0  0
  2  6  2  0  0  0
  2  7  1  0  0  0
  2  9  1  0  0  0
  3  4  1  0  0  0
  3 10  1  0  0  0
  3 13  2  0  0  0
  4 11  2  0  0  0
  4 17  1  0  0  0
  5 11  1  0  0  0
  5 12  2  0  0  0
  5 18  1  0  0  0
  6 13  1  0  0  0
  6 14  1  0  0  0
  7  8  2  0  0  0
  9 10  2  0  0  0
 11 19  1  0  0  0
 12 13  1  0  0  0
 12 20  1  0  0  0
 14 21  1  0  0  0
 14 22  1  0  0  0
M  END
> <s_m_source_file>
../4zly_ligand.sdf

> <i_m_source_file_index>
1

> <s_epik_input>
W05IMl1DKD1PKWMobm4xKWMoW05IMl0pYyhjMTIpW2NIXVtjSF1bY0hdW2NIXTI=

> <s_epik_cmdline>
J2VwaWtfYXBwJywgJy1pbWFlJywgJ2xpZ2FuZF9wcm8ubWFlJywgJy1vbWFlJywgJ2xpZ2FuZF9wcmVwLm1hZScsICctbXMnLCAnMScsICctcGgnLCAnNycsICctcGh0JywgJzAuNScsICctbnQn

> <r_lp_tautomer_probability>
1

> <r_epik_Ionization_Penalty>
  0.0054

> <r_epik_Ionization_Penalty_Charging>
  0.0000

> <r_epik_Ionization_Penalty_Neutral>
  0.0054

> <r_epik_State_Penalty>
 -0.0000

> <r_epik_Charging_Adjusted_Penalty>
0

> <i_epik_Tot_Q>
0

> <i_epik_Tot_abs_Q>
0

$$$$
