4zmf_ligand
                    3D
 Schrodinger Suite 2020-3.
 35 37  0  0  1  0            999 V2000
  -23.3670   16.1530  -45.4960 P   0  0  0  0  0  0
  -24.7690   15.8070  -46.0360 O   0  5  0  0  0  0
  -22.8390   17.5240  -45.8550 O   0  0  0  0  0  0
  -23.1350   15.7910  -44.0340 O   0  5  0  0  0  0
  -22.3200   15.1970  -46.2910 O   0  0  0  0  0  0
  -22.5270   14.7590  -47.6390 C   0  0  0  0  0  0
  -22.7080   13.2370  -47.7020 C   0  0  1  0  0  0
  -21.4580   12.5710  -47.4800 O   0  0  0  0  0  0
  -23.6620   12.6470  -46.6840 C   0  0  1  0  0  0
  -25.0170   12.7070  -47.0910 O   0  0  0  0  0  0
  -23.1500   11.2310  -46.5950 C   0  0  1  0  0  0
  -23.6460   10.4310  -47.6680 O   0  0  0  0  0  0
  -21.6470   11.3530  -46.7560 C   0  0  2  0  0  0
  -20.8850   11.5380  -45.4990 N   0  0  0  0  0  0
  -21.0860   12.5200  -44.6020 C   0  0  0  0  0  0
  -20.2110   12.4360  -43.5890 N   0  0  0  0  0  0
  -19.4220   11.4010  -43.8450 C   0  0  0  0  0  0
  -18.2810   10.7920  -43.1690 C   0  0  0  0  0  0
  -17.8720   11.3230  -42.0200 N   0  0  0  0  0  0
  -17.6870    9.7170  -43.7090 N   0  0  0  0  0  0
  -18.1620    9.2190  -44.8750 C   0  0  0  0  0  0
  -19.2020    9.7390  -45.5530 N   0  0  0  0  0  0
  -19.8550   10.8140  -45.0990 C   0  0  0  0  0  0
  -23.4297   15.2383  -48.0457 H   0  0  0  0  0  0
  -21.6568   15.0360  -48.2523 H   0  0  0  0  0  0
  -23.0794   13.0299  -48.7165 H   0  0  0  0  0  0
  -23.7411   13.1927  -45.7322 H   0  0  0  0  0  0
  -25.5169   13.6811  -47.1969 H   0  0  0  0  0  0
  -23.4916   10.7216  -45.6819 H   0  0  0  0  0  0
  -24.7223   10.2160  -47.7419 H   0  0  0  0  0  0
  -21.2573   10.4486  -47.2460 H   0  0  0  0  0  0
  -21.8588   13.2840  -44.6872 H   0  0  0  0  0  0
  -18.3845   12.2050  -41.6085 H   0  0  0  0  0  0
  -17.0213   10.8801  -41.4814 H   0  0  0  0  0  0
  -17.6703    8.3400  -45.2917 H   0  0  0  0  0  0
  1  2  1  0  0  0
  1  3  2  0  0  0
  1  4  1  0  0  0
  1  5  1  0  0  0
  5  6  1  0  0  0
  6  7  1  0  0  0
  6 24  1  0  0  0
  6 25  1  0  0  0
  7  8  1  0  0  0
  7  9  1  0  0  0
  7 26  1  0  0  0
  8 13  1  0  0  0
  9 10  1  0  0  0
  9 11  1  0  0  0
  9 27  1  0  0  0
 10 28  1  0  0  0
 11 12  1  0  0  0
 11 13  1  0  0  0
 11 29  1  0  0  0
 12 30  1  0  0  0
 13 14  1  0  0  0
 13 31  1  0  0  0
 14 15  1  0  0  0
 14 23  1  0  0  0
 15 16  2  0  0  0
 15 32  1  0  0  0
 16 17  1  0  0  0
 17 18  2  0  0  0
 17 23  1  0  0  0
 18 19  1  0  0  0
 18 20  1  0  0  0
 19 33  1  0  0  0
 19 34  1  0  0  0
 20 21  2  0  0  0
 21 22  1  0  0  0
 21 35  1  0  0  0
 22 23  2  0  0  0
M  CHG  2   2  -1   4  -1
M  END
> <s_m_source_file>
../4zmf_ligand.sdf

> <i_m_source_file_index>
1

> <s_epik_input>
W09IXVAoPU8pKFtPSF0pT1tDSDJdW0NASF0xT1tDQEhdKFtDQEhdKFtPSF0pW0NAQEhdMVtPSF0pbihbY0hdbjIpYyhjMjMpbltjSF1uYzNbTkgyXQ==

> <s_epik_cmdline>
J2VwaWtfYXBwJywgJy1pbWFlJywgJ2xpZ2FuZF9wcm8ubWFlJywgJy1vbWFlJywgJ2xpZ2FuZF9wcmVwLm1hZScsICctbXMnLCAnMScsICctcGgnLCAnNycsICctcGh0JywgJzAuNScsICctbnQn

> <r_lp_tautomer_probability>
0.999997216410988

> <r_epik_Ionization_Penalty>
  0.1025

> <r_epik_Ionization_Penalty_Charging>
  0.1020

> <r_epik_Ionization_Penalty_Neutral>
  0.0004

> <r_epik_State_Penalty>
  0.0920

> <r_epik_Charging_Adjusted_Penalty>
0.194024004396068

> <i_epik_Tot_Q>
-2

> <i_epik_Tot_abs_Q>
2

> <s_epik_Chemistry_Notes>
This compound contains an acetal/aminal-like group ( X-CH(R)-Y where X, Y are N, S, or O) that may be acid/base labile, releasing an aldehyde.

$$$$
