4zom_ligand
                    3D
 Schrodinger Suite 2020-3.
 65 69  0  0  1  0            999 V2000
   45.7510  169.7330   -0.0140 C   0  0  0  0  0  0
   44.1660  171.2850    1.0590 C   0  0  0  0  0  0
   45.0540  175.5440    1.3240 O   0  0  0  0  0  0
   43.8680  175.6190    1.3190 C   0  0  0  0  0  0
   43.3020  177.0740    1.3520 C   0  0  0  0  0  0
   42.9860  174.5910    1.2500 N   0  0  0  0  0  0
   43.2940  173.2520    1.1270 C   0  0  0  0  0  0
   44.4670  172.5720    1.1630 C   0  0  0  0  0  0
   42.2430  172.4410    0.9090 N   0  0  0  0  0  0
   42.8960  171.2220    0.8410 N   0  0  0  0  0  0
   42.0850  170.0280    0.5950 C   0  0  0  0  0  0
   41.6390  170.2380   -0.7620 C   0  0  0  0  0  0
   40.8630  170.0450    1.5410 C   0  0  0  0  0  0
   45.0980  170.0870    1.0860 C   0  0  0  0  0  0
   46.6190  168.6390   -0.0900 C   0  0  0  0  0  0
   47.1440  168.3170   -1.3010 N   0  0  0  0  0  0
   47.3720  166.9080   -1.7410 C   0  0  0  0  0  0
   48.0670  167.1650   -3.1370 C   0  0  2  0  0  0
   49.3610  167.9930   -2.9640 C   0  0  0  0  0  0
   48.0660  168.6340   -3.4630 C   0  0  2  0  0  0
   47.2250  169.3310   -2.4010 C   0  0  0  0  0  0
   45.2280  169.4000    2.2600 C   0  0  0  0  0  0
   46.0360  168.2430    2.2610 C   0  0  0  0  0  0
   46.7540  167.8320    1.1040 C   0  0  0  0  0  0
   47.6460  166.8320    1.2360 N   0  0  0  0  0  0
   49.0340  167.1640    1.0260 C   0  0  0  0  0  0
   47.1840  165.6640    1.5740 C   0  0  0  0  0  0
   45.9640  165.3900    1.4460 O   0  0  0  0  0  0
   48.1790  164.6800    2.1380 C   0  0  0  0  0  0
   48.6030  164.6310    3.5550 C   0  0  0  0  0  0
   48.0040  165.4570    4.4060 F   0  0  0  0  0  0
   49.5260  163.7000    3.9790 C   0  0  0  0  0  0
   50.1440  162.8440    3.0520 C   0  0  0  0  0  0
   49.7940  162.8460    1.7310 C   0  0  0  0  0  0
   48.8230  163.7360    1.2950 C   0  0  0  0  0  0
   48.3350  163.9100   -0.3760 Cl  0  0  0  0  0  0
   45.6017  170.3313   -0.9128 H   0  0  0  0  0  0
   44.1350  177.7903    1.4079 H   0  0  0  0  0  0
   42.6542  177.1955    2.2327 H   0  0  0  0  0  0
   42.7181  177.2611    0.4387 H   0  0  0  0  0  0
   41.9050  174.7901    1.2918 H   0  0  0  0  0  0
   45.4645  173.0008    1.2589 H   0  0  0  0  0  0
   42.6503  169.0907    0.7038 H   0  0  0  0  0  0
   42.5061  170.2266   -1.4388 H   0  0  0  0  0  0
   41.1301  171.2105   -0.8343 H   0  0  0  0  0  0
   40.9411  169.4369   -1.0467 H   0  0  0  0  0  0
   41.1986  169.8853    2.5763 H   0  0  0  0  0  0
   40.1658  169.2441    1.2538 H   0  0  0  0  0  0
   40.3549  171.0177    1.4662 H   0  0  0  0  0  0
   48.0140  166.3949   -1.0099 H   0  0  0  0  0  0
   46.4068  166.3852   -1.8119 H   0  0  0  0  0  0
   47.7999  166.2538   -3.6922 H   0  0  0  0  0  0
   49.6843  167.9529   -1.9133 H   0  0  0  0  0  0
   50.1510  167.5774   -3.6068 H   0  0  0  0  0  0
   47.8575  169.2814   -4.3275 H   0  0  0  0  0  0
   46.2114  169.5673   -2.7572 H   0  0  0  0  0  0
   47.7030  170.2462   -2.0216 H   0  0  0  0  0  0
   44.7238  169.7349    3.1665 H   0  0  0  0  0  0
   46.1118  167.6491    3.1718 H   0  0  0  0  0  0
   49.1193  168.2252    0.7492 H   0  0  0  0  0  0
   49.4419  166.5401    0.2171 H   0  0  0  0  0  0
   49.5991  166.9799    1.9516 H   0  0  0  0  0  0
   49.7776  163.6273    5.0371 H   0  0  0  0  0  0
   50.9217  162.1616    3.3949 H   0  0  0  0  0  0
   50.2701  162.1593    1.0310 H   0  0  0  0  0  0
  1 14  2  0  0  0
  1 15  1  0  0  0
  1 37  1  0  0  0
  2  8  2  0  0  0
  2 10  1  0  0  0
  2 14  1  0  0  0
  3  4  2  0  0  0
  4  5  1  0  0  0
  4  6  1  0  0  0
  5 38  1  0  0  0
  5 39  1  0  0  0
  5 40  1  0  0  0
  6  7  1  0  0  0
  6 41  1  0  0  0
  7  8  1  0  0  0
  7  9  2  0  0  0
  8 42  1  0  0  0
  9 10  1  0  0  0
 10 11  1  0  0  0
 11 12  1  0  0  0
 11 13  1  0  0  0
 11 43  1  0  0  0
 12 44  1  0  0  0
 12 45  1  0  0  0
 12 46  1  0  0  0
 13 47  1  0  0  0
 13 48  1  0  0  0
 13 49  1  0  0  0
 14 22  1  0  0  0
 15 16  1  0  0  0
 15 24  2  0  0  0
 16 17  1  0  0  0
 16 21  1  0  0  0
 17 18  1  0  0  0
 17 50  1  0  0  0
 17 51  1  0  0  0
 18 19  1  0  0  0
 18 20  1  0  0  0
 18 52  1  0  0  0
 19 20  1  0  0  0
 19 53  1  0  0  0
 19 54  1  0  0  0
 20 21  1  0  0  0
 20 55  1  0  0  0
 21 56  1  0  0  0
 21 57  1  0  0  0
 22 23  2  0  0  0
 22 58  1  0  0  0
 23 24  1  0  0  0
 23 59  1  0  0  0
 24 25  1  0  0  0
 25 26  1  0  0  0
 25 27  1  0  0  0
 26 60  1  0  0  0
 26 61  1  0  0  0
 26 62  1  0  0  0
 27 28  2  0  0  0
 27 29  1  0  0  0
 29 30  2  0  0  0
 29 35  1  0  0  0
 30 31  1  0  0  0
 30 32  1  0  0  0
 32 33  2  0  0  0
 32 63  1  0  0  0
 33 34  1  0  0  0
 33 64  1  0  0  0
 34 35  2  0  0  0
 34 65  1  0  0  0
 35 36  1  0  0  0
M  END
> <s_m_source_file>
../4zom_ligand.sdf

> <i_m_source_file_index>
1

> <s_epik_input>
W0NIM11bQ0hdKFtDSDNdKW4xbmMoW05IXUMoPU8pW0NIM10pW2NIXWMxLWMyW2NIXWMoTihbQ0gyXTMpW0NIMl1bQ0BIXShbQ0BIXTM0KVtDSDJdNCljKFtjSF1bY0hdMilOKFtDSDNdKUMoPU8pYzVjKEYpW2NIXVtjSF1bY0hdYzVDbA==

> <s_epik_cmdline>
J2VwaWtfYXBwJywgJy1pbWFlJywgJ2xpZ2FuZF9wcm8ubWFlJywgJy1vbWFlJywgJ2xpZ2FuZF9wcmVwLm1hZScsICctbXMnLCAnMScsICctcGgnLCAnNycsICctcGh0JywgJzAuNScsICctbnQn

> <r_lp_tautomer_probability>
1

> <r_epik_Ionization_Penalty>
  0.0012

> <r_epik_Ionization_Penalty_Charging>
  0.0000

> <r_epik_Ionization_Penalty_Neutral>
  0.0012

> <r_epik_State_Penalty>
 -0.0000

> <r_epik_Charging_Adjusted_Penalty>
0

> <i_epik_Tot_Q>
0

> <i_epik_Tot_abs_Q>
0

$$$$
