4zow_ligand
                    3D
 Schrodinger Suite 2020-3.
 32 32  0  0  1  0            999 V2000
  -17.5680   10.0890   24.5440 C   0  0  0  0  0  0
  -18.6100    9.9190   23.1360 Cl  0  0  0  0  0  0
  -15.8740    9.7580   24.1820 Cl  0  0  0  0  0  0
  -17.7580   11.4690   25.1950 C   0  0  0  0  0  0
  -17.0470   11.8100   26.1070 O   0  0  0  0  0  0
  -18.7840   12.3380   24.7190 N   0  0  0  0  0  0
  -18.9840   13.6370   25.3390 C   0  0  2  0  0  0
  -20.3480   13.6530   25.9080 C   0  0  0  0  0  0
  -21.2490   13.1750   24.9220 O   0  0  0  0  0  0
  -18.8380   14.7740   24.3260 C   0  0  2  0  0  0
  -18.7590   14.2480   23.0160 O   0  0  0  0  0  0
  -17.5900   15.5610   24.6540 C   0  0  0  0  0  0
  -16.6350   15.7850   23.6990 C   0  0  0  0  0  0
  -15.4810   16.5190   24.0270 C   0  0  0  0  0  0
  -15.3090   17.0310   25.3620 C   0  0  0  0  0  0
  -14.1830   17.7460   25.6890 N   0  3  0  0  0  0
  -13.8920   17.9880   26.9960 O   0  0  0  0  0  0
  -13.3630   18.2130   24.7100 O   0  5  0  0  0  0
  -16.2710   16.8000   26.3190 C   0  0  0  0  0  0
  -17.4100   16.0750   25.9950 C   0  0  0  0  0  0
  -17.9077    9.4427   25.3668 H   0  0  0  0  0  0
  -19.4243   12.0238   23.8815 H   0  0  0  0  0  0
  -18.2273   13.7455   26.1299 H   0  0  0  0  0  0
  -20.3825   13.0046   26.7959 H   0  0  0  0  0  0
  -20.6138   14.6813   26.1944 H   0  0  0  0  0  0
  -22.3238   13.1070   25.1458 H   0  0  0  0  0  0
  -19.7213   15.4292   24.3028 H   0  0  0  0  0  0
  -19.5873   13.6460   22.6142 H   0  0  0  0  0  0
  -16.7683   15.3964   22.6894 H   0  0  0  0  0  0
  -14.7170   16.7003   23.2710 H   0  0  0  0  0  0
  -16.1388   17.1857   27.3299 H   0  0  0  0  0  0
  -18.1714   15.8923   26.7533 H   0  0  0  0  0  0
  1  2  1  0  0  0
  1  3  1  0  0  0
  1  4  1  0  0  0
  1 21  1  0  0  0
  4  5  2  0  0  0
  4  6  1  0  0  0
  6  7  1  0  0  0
  6 22  1  0  0  0
  7  8  1  0  0  0
  7 10  1  0  0  0
  7 23  1  0  0  0
  8  9  1  0  0  0
  8 24  1  0  0  0
  8 25  1  0  0  0
  9 26  1  0  0  0
 10 11  1  0  0  0
 10 12  1  0  0  0
 10 27  1  0  0  0
 11 28  1  0  0  0
 12 13  2  0  0  0
 12 20  1  0  0  0
 13 14  1  0  0  0
 13 29  1  0  0  0
 14 15  2  0  0  0
 14 30  1  0  0  0
 15 16  1  0  0  0
 15 19  1  0  0  0
 16 17  2  0  0  0
 16 18  1  0  0  0
 19 20  2  0  0  0
 19 31  1  0  0  0
 20 32  1  0  0  0
M  CHG  2  16   1  18  -1
M  END
> <s_m_source_file>
../4zow_ligand.sdf

> <i_m_source_file_index>
1

> <s_epik_input>
Q2xbQ0hdKENsKUMoPU8pW05IXVtDQEhdKFtDSDJdW09IXSlbQ0BIXShbT0hdKWMxW2NIXVtjSF1jKFtOK10oPU8pW08tXSlbY0hdW2NIXTE=

> <s_epik_cmdline>
J2VwaWtfYXBwJywgJy1pbWFlJywgJ2xpZ2FuZF9wcm8ubWFlJywgJy1vbWFlJywgJ2xpZ2FuZF9wcmVwLm1hZScsICctbXMnLCAnMScsICctcGgnLCAnNycsICctcGh0JywgJzAuNScsICctbnQn

> <r_lp_tautomer_probability>
1

> <r_epik_Ionization_Penalty>
  0.0000

> <r_epik_Ionization_Penalty_Charging>
  0.0000

> <r_epik_Ionization_Penalty_Neutral>
  0.0000

> <r_epik_State_Penalty>
 -0.0000

> <r_epik_Charging_Adjusted_Penalty>
0

> <i_epik_Tot_Q>
0

> <i_epik_Tot_abs_Q>
2

$$$$
