4zpe_ligand
                    3D
 Schrodinger Suite 2020-3.
 74 78  0  0  1  0            999 V2000
   29.5280   38.6570    0.5040 C   0  0  1  0  0  0
   28.6250   39.0090   -1.6560 C   0  0  0  0  0  0
   28.2340   37.9350    0.1560 C   0  0  0  0  0  0
   30.6660   37.6710    0.7530 C   0  0  0  0  0  0
   29.6140   39.3700   -0.7550 N   0  0  0  0  0  0
   27.7340   38.1870   -1.0260 N   0  3  0  0  0  0
   31.9600   38.2980    1.2680 C   0  0  0  0  0  0
   31.6940   39.2300    2.3830 N   0  0  2  0  0  0
   30.5300   40.1860    2.2820 C   0  0  0  0  0  0
   29.2640   39.5690    1.6970 C   0  0  0  0  0  0
   28.6080   39.2810   -2.8510 O   0  0  0  0  0  0
   27.6430   37.1260    1.1120 N   0  0  0  0  0  0
   30.5830   40.3360   -1.0990 C   0  0  0  0  0  0
   26.4460   36.3600    0.7970 C   0  0  0  0  0  0
   26.8560   34.9320    0.4710 C   0  0  0  0  0  0
   25.6250   34.0660    0.2170 C   0  0  0  0  0  0
   24.6450   34.1180    1.3770 C   0  0  0  0  0  0
   24.2530   35.5420    1.7350 C   0  0  0  0  0  0
   25.4970   36.3920    1.9860 C   0  0  0  0  0  0
   30.3650   41.6710   -0.8090 C   0  0  0  0  0  0
   31.2870   42.6330   -1.1680 C   0  0  0  0  0  0
   32.3970   42.2700   -1.8970 C   0  0  0  0  0  0
   32.5800   40.9400   -2.2260 C   0  0  0  0  0  0
   31.6880   39.9630   -1.8370 C   0  0  0  0  0  0
   33.6250   40.5910   -2.9600 F   0  0  0  0  0  0
   32.9320   39.7690    3.0510 C   0  0  0  0  0  0
   33.6230   40.8050    2.2150 C   0  0  0  0  0  0
   34.5700   40.4720    1.2740 C   0  0  0  0  0  0
   35.1610   41.4490    0.4930 C   0  0  0  0  0  0
   34.8010   42.7730    0.6640 C   0  0  0  0  0  0
   33.8560   43.1110    1.6130 C   0  0  0  0  0  0
   33.2740   42.1230    2.3860 C   0  0  0  0  0  0
   33.5060   44.4510    1.7320 O   0  0  0  0  0  0
   32.3450   44.6200    2.5680 C   0  0  0  0  0  0
   32.8260   45.1600    3.8860 C   0  0  0  0  0  0
   31.4100   45.6000    1.8740 C   0  0  0  0  0  0
   30.3526   36.9315    1.5046 H   0  0  0  0  0  0
   30.9168   37.1557   -0.1859 H   0  0  0  0  0  0
   32.6343   37.5059    1.6256 H   0  0  0  0  0  0
   32.4473   38.8544    0.4538 H   0  0  0  0  0  0
   30.2739   40.5591    3.2846 H   0  0  0  0  0  0
   30.8055   41.0321    1.6353 H   0  0  0  0  0  0
   28.6069   40.3954    1.3884 H   0  0  0  0  0  0
   28.7775   38.9932    2.4981 H   0  0  0  0  0  0
   28.0862   37.0653    2.1169 H   0  0  0  0  0  0
   25.9599   36.8254   -0.0732 H   0  0  0  0  0  0
   27.4870   34.9283   -0.4300 H   0  0  0  0  0  0
   27.4206   34.5107    1.3158 H   0  0  0  0  0  0
   25.1075   34.4204   -0.6866 H   0  0  0  0  0  0
   25.9352   33.0202    0.0754 H   0  0  0  0  0  0
   23.7301   33.5693    1.1089 H   0  0  0  0  0  0
   25.1025   33.6565    2.2645 H   0  0  0  0  0  0
   23.6795   35.9837    0.9067 H   0  0  0  0  0  0
   23.6356   35.5345    2.6454 H   0  0  0  0  0  0
   26.0112   36.0007    2.8762 H   0  0  0  0  0  0
   25.1779   37.4280    2.1727 H   0  0  0  0  0  0
   29.4532   41.9668   -0.2902 H   0  0  0  0  0  0
   31.1375   43.6726   -0.8765 H   0  0  0  0  0  0
   33.1218   43.0213   -2.2105 H   0  0  0  0  0  0
   31.8519   38.9196   -2.1063 H   0  0  0  0  0  0
   32.6588   40.2318    4.0108 H   0  0  0  0  0  0
   33.6403   38.9464    3.2291 H   0  0  0  0  0  0
   34.8572   39.4287    1.1427 H   0  0  0  0  0  0
   35.9069   41.1764   -0.2536 H   0  0  0  0  0  0
   35.2618   43.5480    0.0515 H   0  0  0  0  0  0
   32.5318   42.3921    3.1376 H   0  0  0  0  0  0
   31.8398   43.6547    2.7195 H   0  0  0  0  0  0
   33.4976   44.4283    4.3589 H   0  0  0  0  0  0
   31.9635   45.3445    4.5434 H   0  0  0  0  0  0
   33.3688   46.1022    3.7201 H   0  0  0  0  0  0
   31.0782   45.1741    0.9156 H   0  0  0  0  0  0
   31.9407   46.5459    1.6908 H   0  0  0  0  0  0
   30.5354   45.7882    2.5141 H   0  0  0  0  0  0
   26.7683   37.7495   -1.3194 H   0  0  0  0  0  0
  1  3  1  0  0  0
  1  4  1  0  0  0
  1  5  1  0  0  0
  1 10  1  0  0  0
  2  5  1  0  0  0
  2  6  1  0  0  0
  2 11  2  0  0  0
  3  6  2  0  0  0
  3 12  1  0  0  0
  4  7  1  0  0  0
  4 37  1  0  0  0
  4 38  1  0  0  0
  5 13  1  0  0  0
  6 74  1  0  0  0
  7  8  1  0  0  0
  7 39  1  0  0  0
  7 40  1  0  0  0
  8  9  1  0  0  0
  8 26  1  0  0  0
  9 10  1  0  0  0
  9 41  1  0  0  0
  9 42  1  0  0  0
 10 43  1  0  0  0
 10 44  1  0  0  0
 12 14  1  0  0  0
 12 45  1  0  0  0
 13 20  2  0  0  0
 13 24  1  0  0  0
 14 15  1  0  0  0
 14 19  1  0  0  0
 14 46  1  0  0  0
 15 16  1  0  0  0
 15 47  1  0  0  0
 15 48  1  0  0  0
 16 17  1  0  0  0
 16 49  1  0  0  0
 16 50  1  0  0  0
 17 18  1  0  0  0
 17 51  1  0  0  0
 17 52  1  0  0  0
 18 19  1  0  0  0
 18 53  1  0  0  0
 18 54  1  0  0  0
 19 55  1  0  0  0
 19 56  1  0  0  0
 20 21  1  0  0  0
 20 57  1  0  0  0
 21 22  2  0  0  0
 21 58  1  0  0  0
 22 23  1  0  0  0
 22 59  1  0  0  0
 23 24  2  0  0  0
 23 25  1  0  0  0
 24 60  1  0  0  0
 26 27  1  0  0  0
 26 61  1  0  0  0
 26 62  1  0  0  0
 27 28  2  0  0  0
 27 32  1  0  0  0
 28 29  1  0  0  0
 28 63  1  0  0  0
 29 30  2  0  0  0
 29 64  1  0  0  0
 30 31  1  0  0  0
 30 65  1  0  0  0
 31 32  2  0  0  0
 31 33  1  0  0  0
 32 66  1  0  0  0
 33 34  1  0  0  0
 34 35  1  0  0  0
 34 36  1  0  0  0
 34 67  1  0  0  0
 35 68  1  0  0  0
 35 69  1  0  0  0
 35 70  1  0  0  0
 36 71  1  0  0  0
 36 72  1  0  0  0
 36 73  1  0  0  0
M  CHG  1   6   1
M  END
> <s_m_source_file>
../4zpe_ligand.sdf

> <i_m_source_file_index>
1

> <s_epik_input>
W2NIXTFjKEYpW2NIXVtjSF1bY0hdYzFOMkMoPU8pTj1DKFtOSF1bQ0hdM1tDSDJdW0NIMl1bQ0gyXVtDSDJdW0NIMl0zKVtDQEBdMjRbQ0gyXVtDSDJdW05ASCtdKFtDSDJdW0NIMl00KVtDSDJdYzVbY0hdW2NIXVtjSF1jKFtjSF01KU9bQ0hdKFtDSDNdKVtDSDNd

> <s_epik_cmdline>
J2VwaWtfYXBwJywgJy1pbWFlJywgJ2xpZ2FuZF9wcm8ubWFlJywgJy1vbWFlJywgJ2xpZ2FuZF9wcmVwLm1hZScsICctbXMnLCAnMScsICctcGgnLCAnNycsICctcGh0JywgJzAuNScsICctbnQn

> <r_lp_tautomer_probability>
1

> <r_epik_Ionization_Penalty>
  0.2132

> <r_epik_Ionization_Penalty_Charging>
  0.0045

> <r_epik_Ionization_Penalty_Neutral>
  0.2088

> <r_epik_State_Penalty>
 -0.0000

> <r_epik_Charging_Adjusted_Penalty>
0.00446642031835307

> <i_epik_Tot_Q>
1

> <i_epik_Tot_abs_Q>
1

> <s_epik_Chemistry_Notes>
This compound has an imine and may undergo hydrolysis.

$$$$
