4zpf_ligand
                    3D
 Schrodinger Suite 2020-3.
 77 81  0  0  1  0            999 V2000
   29.3880   38.3760    0.4510 C   0  0  1  0  0  0
   29.4820   39.0890   -0.8100 N   0  0  0  0  0  0
   28.4990   38.7390   -1.7080 C   0  0  0  0  0  0
   27.6520   37.8660   -1.1020 N   0  3  0  0  0  0
   28.1100   37.6410    0.0940 C   0  0  0  0  0  0
   30.5040   37.3570    0.7180 C   0  0  0  0  0  0
   31.7970   37.9900    1.2240 C   0  0  0  0  0  0
   31.5170   38.8690    2.4040 N   0  0  2  0  0  0
   30.4060   39.8730    2.2400 C   0  0  0  0  0  0
   29.1240   39.2720    1.6580 C   0  0  0  0  0  0
   28.4100   39.1170   -2.8650 O   0  0  0  0  0  0
   27.5260   36.8070    1.0300 N   0  0  0  0  0  0
   30.4590   40.0380   -1.1720 C   0  0  0  0  0  0
   26.2570   36.1490    0.7600 C   0  0  0  0  0  0
   26.4940   34.6900    0.4050 C   0  0  0  0  0  0
   25.1650   33.9790    0.1260 C   0  0  0  0  0  0
   24.2340   34.1000    1.3280 C   0  0  0  0  0  0
   24.0080   35.5640    1.6780 C   0  0  0  0  0  0
   25.3390   36.2500    1.9670 C   0  0  0  0  0  0
   30.2510   41.3720   -0.8800 C   0  0  0  0  0  0
   31.1900   42.3170   -1.2340 C   0  0  0  0  0  0
   32.3140   41.9380   -1.9350 C   0  0  0  0  0  0
   32.4980   40.6070   -2.2460 C   0  0  0  0  0  0
   31.5760   39.6470   -1.8870 C   0  0  0  0  0  0
   33.5810   40.2490   -2.9350 F   0  0  0  0  0  0
   32.7650   39.4110    3.0430 C   0  0  0  0  0  0
   33.4470   40.4730    2.2280 C   0  0  0  0  0  0
   34.4030   40.1510    1.2770 C   0  0  0  0  0  0
   35.0070   41.1390    0.5170 C   0  0  0  0  0  0
   34.6360   42.4570    0.7070 C   0  0  0  0  0  0
   33.6780   42.7840    1.6530 C   0  0  0  0  0  0
   33.0910   41.7940    2.4200 C   0  0  0  0  0  0
   33.3600   44.1370    1.7710 O   0  0  0  0  0  0
   32.4870   44.4780    2.8650 C   0  0  2  0  0  0
   31.9640   45.8730    2.5670 C   0  0  0  0  0  0
   33.3070   44.5620    4.1480 C   0  0  0  0  0  0
   31.1010   45.8060    1.3640 N   0  3  0  0  0  0
   30.1691   36.6377    1.4799 H   0  0  0  0  0  0
   30.7417   36.8212   -0.2128 H   0  0  0  0  0  0
   32.4997   37.1987    1.5239 H   0  0  0  0  0  0
   32.2467   38.5955    0.4233 H   0  0  0  0  0  0
   30.1534   40.3037    3.2202 H   0  0  0  0  0  0
   30.7330   40.6741    1.5608 H   0  0  0  0  0  0
   28.4672   40.1030    1.3611 H   0  0  0  0  0  0
   28.6372   38.6851    2.4508 H   0  0  0  0  0  0
   28.0363   36.6446    1.9909 H   0  0  0  0  0  0
   25.8101   36.6810   -0.0928 H   0  0  0  0  0  0
   27.1257   34.6292   -0.4934 H   0  0  0  0  0  0
   26.9984   34.1861    1.2426 H   0  0  0  0  0  0
   24.6809   34.4368   -0.7493 H   0  0  0  0  0  0
   25.3539   32.9141   -0.0747 H   0  0  0  0  0  0
   23.2660   33.6347    1.0903 H   0  0  0  0  0  0
   24.6835   33.5900    2.1928 H   0  0  0  0  0  0
   23.5181   36.0714    0.8339 H   0  0  0  0  0  0
   23.3671   35.6332    2.5693 H   0  0  0  0  0  0
   25.8143   35.7624    2.8309 H   0  0  0  0  0  0
   25.1542   37.3091    2.1995 H   0  0  0  0  0  0
   29.3396   41.6790   -0.3670 H   0  0  0  0  0  0
   31.0436   43.3618   -0.9600 H   0  0  0  0  0  0
   33.0497   42.6820   -2.2404 H   0  0  0  0  0  0
   31.7244   38.6024   -2.1609 H   0  0  0  0  0  0
   32.5146   39.8557    4.0174 H   0  0  0  0  0  0
   33.4874   38.5942    3.1876 H   0  0  0  0  0  0
   34.6825   39.1084    1.1256 H   0  0  0  0  0  0
   35.7655   40.8804   -0.2218 H   0  0  0  0  0  0
   35.0992   43.2425    0.1099 H   0  0  0  0  0  0
   32.3490   42.0555    3.1744 H   0  0  0  0  0  0
   31.7002   43.7127    2.9383 H   0  0  0  0  0  0
   31.3819   46.2376    3.4262 H   0  0  0  0  0  0
   32.8108   46.5507    2.3837 H   0  0  0  0  0  0
   33.7033   43.5662    4.3957 H   0  0  0  0  0  0
   32.6672   44.9168    4.9695 H   0  0  0  0  0  0
   34.1420   45.2635    4.0042 H   0  0  0  0  0  0
   30.7136   46.8096    1.1343 H   0  0  0  0  0  0
   30.2600   45.1228    1.5537 H   0  0  0  0  0  0
   31.6889   45.4359    0.5112 H   0  0  0  0  0  0
   26.7293   37.3715   -1.4397 H   0  0  0  0  0  0
  1  2  1  0  0  0
  1  5  1  0  0  0
  1  6  1  0  0  0
  1 10  1  0  0  0
  2  3  1  0  0  0
  2 13  1  0  0  0
  3  4  1  0  0  0
  3 11  2  0  0  0
  4  5  2  0  0  0
  4 77  1  0  0  0
  5 12  1  0  0  0
  6  7  1  0  0  0
  6 38  1  0  0  0
  6 39  1  0  0  0
  7  8  1  0  0  0
  7 40  1  0  0  0
  7 41  1  0  0  0
  8  9  1  0  0  0
  8 26  1  0  0  0
  9 10  1  0  0  0
  9 42  1  0  0  0
  9 43  1  0  0  0
 10 44  1  0  0  0
 10 45  1  0  0  0
 12 14  1  0  0  0
 12 46  1  0  0  0
 13 20  2  0  0  0
 13 24  1  0  0  0
 14 15  1  0  0  0
 14 19  1  0  0  0
 14 47  1  0  0  0
 15 16  1  0  0  0
 15 48  1  0  0  0
 15 49  1  0  0  0
 16 17  1  0  0  0
 16 50  1  0  0  0
 16 51  1  0  0  0
 17 18  1  0  0  0
 17 52  1  0  0  0
 17 53  1  0  0  0
 18 19  1  0  0  0
 18 54  1  0  0  0
 18 55  1  0  0  0
 19 56  1  0  0  0
 19 57  1  0  0  0
 20 21  1  0  0  0
 20 58  1  0  0  0
 21 22  2  0  0  0
 21 59  1  0  0  0
 22 23  1  0  0  0
 22 60  1  0  0  0
 23 24  2  0  0  0
 23 25  1  0  0  0
 24 61  1  0  0  0
 26 27  1  0  0  0
 26 62  1  0  0  0
 26 63  1  0  0  0
 27 28  2  0  0  0
 27 32  1  0  0  0
 28 29  1  0  0  0
 28 64  1  0  0  0
 29 30  2  0  0  0
 29 65  1  0  0  0
 30 31  1  0  0  0
 30 66  1  0  0  0
 31 32  2  0  0  0
 31 33  1  0  0  0
 32 67  1  0  0  0
 33 34  1  0  0  0
 34 35  1  0  0  0
 34 36  1  0  0  0
 34 68  1  0  0  0
 35 37  1  0  0  0
 35 69  1  0  0  0
 35 70  1  0  0  0
 36 71  1  0  0  0
 36 72  1  0  0  0
 36 73  1  0  0  0
 37 74  1  0  0  0
 37 75  1  0  0  0
 37 76  1  0  0  0
M  CHG  2   4   1  37   1
M  END
> <s_m_source_file>
../4zpf_ligand.sdf

> <i_m_source_file_index>
1

> <s_epik_input>
W0NIMl0xW0NIMl1bQ0gyXVtDSDJdW0NIMl1bQ0hdMVtOSF1DMj1OQyg9TylOKGMzW2NIXVtjSF1bY0hdYyhGKVtjSF0zKVtDQF0yNFtDSDJdW0NIMl1bTkBIK10oW0NIMl1bQ0gyXTQpW0NIMl1jNVtjSF1bY0hdW2NIXWMoW2NIXTUpT1tDQEBIXShbQ0gzXSlbQ0gyXVtOSDMrXQ==

> <s_epik_cmdline>
J2VwaWtfYXBwJywgJy1pbWFlJywgJ2xpZ2FuZF9wcm8ubWFlJywgJy1vbWFlJywgJ2xpZ2FuZF9wcmVwLm1hZScsICctbXMnLCAnMScsICctcGgnLCAnNycsICctcGh0JywgJzAuNScsICctbnQn

> <r_lp_tautomer_probability>
1

> <r_epik_Ionization_Penalty>
  0.2165

> <r_epik_Ionization_Penalty_Charging>
  0.0114

> <r_epik_Ionization_Penalty_Neutral>
  0.2051

> <r_epik_State_Penalty>
 -0.0000

> <r_epik_Charging_Adjusted_Penalty>
0.0113572454277242

> <i_epik_Tot_Q>
2

> <i_epik_Tot_abs_Q>
2

> <s_epik_Chemistry_Notes>
This compound has an imine and may undergo hydrolysis.

$$$$
