4zpg_ligand
                    3D
 Schrodinger Suite 2020-3.
 67 71  0  0  1  0            999 V2000
   29.2290   39.6190    1.5660 C   0  0  0  0  0  0
   30.5060   40.2140    2.1450 C   0  0  0  0  0  0
   31.8630   38.2230    1.3030 C   0  0  1  0  0  0
   30.5700   37.5900    0.8120 C   0  0  0  0  0  0
   29.4990   38.6220    0.4450 C   0  0  1  0  0  0
   28.2100   37.8830    0.1150 C   0  0  0  0  0  0
   28.6520   38.8630   -1.7530 C   0  0  0  0  0  0
   30.6880   40.1050   -1.3000 C   0  0  0  0  0  0
   30.6030   41.4730   -1.1000 C   0  0  0  0  0  0
   31.6100   42.3040   -1.5480 C   0  0  0  0  0  0
   32.6970   41.7880   -2.2360 C   0  0  0  0  0  0
   32.7630   40.4290   -2.4520 C   0  0  0  0  0  0
   31.7650   39.5910   -1.9990 C   0  0  0  0  0  0
   26.3330   36.4040    0.8130 C   0  0  0  0  0  0
   25.4020   36.4510    2.0200 C   0  0  0  0  0  0
   24.1000   35.6870    1.7430 C   0  0  0  0  0  0
   31.5970   39.2010    2.4100 N   0  0  1  0  0  0
   27.7800   38.0510   -1.1010 N   0  3  0  0  0  0
   29.6520   39.2390   -0.8700 N   0  0  0  0  0  0
   28.5370   39.1760   -2.9320 O   0  0  0  0  0  0
   33.7960   39.9040   -3.1380 F   0  0  0  0  0  0
   27.5740   37.1230    1.0860 N   0  0  0  0  0  0
   24.3810   34.2480    1.3240 C   0  0  0  0  0  0
   25.3280   34.2070    0.1310 C   0  0  0  0  0  0
   26.6310   34.9630    0.4220 C   0  0  0  0  0  0
   32.8280   39.8400    3.0120 C   0  0  0  0  0  0
   33.5130   40.8770    2.1580 C   0  0  0  0  0  0
   34.4640   40.5010    1.2250 C   0  0  0  0  0  0
   35.0920   41.4450    0.4280 C   0  0  0  0  0  0
   34.7430   42.7750    0.5560 C   0  0  0  0  0  0
   33.7980   43.1710    1.4910 C   0  0  0  0  0  0
   33.1950   42.2210    2.2960 C   0  0  0  0  0  0
   32.8450   37.1520    1.7360 C   0  0  0  0  0  0
   28.6774   39.0926    2.3589 H   0  0  0  0  0  0
   28.6021   40.4246    1.1561 H   0  0  0  0  0  0
   30.9167   40.9544    1.4428 H   0  0  0  0  0  0
   30.2805   40.7037    3.1038 H   0  0  0  0  0  0
   32.3163   38.7934    0.4789 H   0  0  0  0  0  0
   30.7744   36.9876   -0.0854 H   0  0  0  0  0  0
   30.1553   36.9445    1.6003 H   0  0  0  0  0  0
   29.7384   41.8945   -0.5873 H   0  0  0  0  0  0
   31.5498   43.3758   -1.3590 H   0  0  0  0  0  0
   33.4860   42.4461   -2.5999 H   0  0  0  0  0  0
   31.8256   38.5201   -2.1927 H   0  0  0  0  0  0
   25.8614   36.9276   -0.0317 H   0  0  0  0  0  0
   25.9015   35.9928    2.8864 H   0  0  0  0  0  0
   25.1537   37.4974    2.2511 H   0  0  0  0  0  0
   23.4827   35.6724    2.6534 H   0  0  0  0  0  0
   23.5473   36.1858    0.9332 H   0  0  0  0  0  0
   28.0312   37.0712    2.0851 H   0  0  0  0  0  0
   24.8429   33.7056    2.1622 H   0  0  0  0  0  0
   23.4374   33.7565    1.0447 H   0  0  0  0  0  0
   25.5768   33.1616   -0.1038 H   0  0  0  0  0  0
   24.8420   34.6726   -0.7391 H   0  0  0  0  0  0
   27.2612   34.9505   -0.4795 H   0  0  0  0  0  0
   27.1597   34.4613    1.2459 H   0  0  0  0  0  0
   32.5570   40.3451    3.9508 H   0  0  0  0  0  0
   33.5807   39.0645    3.2169 H   0  0  0  0  0  0
   34.7225   39.4478    1.1157 H   0  0  0  0  0  0
   35.8524   41.1412   -0.2914 H   0  0  0  0  0  0
   35.2147   43.5208   -0.0839 H   0  0  0  0  0  0
   33.5323   44.2234    1.5908 H   0  0  0  0  0  0
   32.4649   42.5302    3.0440 H   0  0  0  0  0  0
   33.0170   36.4540    0.9034 H   0  0  0  0  0  0
   32.4332   36.6030    2.5957 H   0  0  0  0  0  0
   33.7972   37.6221    2.0231 H   0  0  0  0  0  0
   26.8500   37.5629   -1.4279 H   0  0  0  0  0  0
  1  2  1  0  0  0
  1  5  1  0  0  0
  1 34  1  0  0  0
  1 35  1  0  0  0
  2 17  1  0  0  0
  2 36  1  0  0  0
  2 37  1  0  0  0
  3  4  1  0  0  0
  3 17  1  0  0  0
  3 33  1  0  0  0
  3 38  1  0  0  0
  4  5  1  0  0  0
  4 39  1  0  0  0
  4 40  1  0  0  0
  5  6  1  0  0  0
  5 19  1  0  0  0
  6 18  2  0  0  0
  6 22  1  0  0  0
  7 18  1  0  0  0
  7 19  1  0  0  0
  7 20  2  0  0  0
  8  9  2  0  0  0
  8 13  1  0  0  0
  8 19  1  0  0  0
  9 10  1  0  0  0
  9 41  1  0  0  0
 10 11  2  0  0  0
 10 42  1  0  0  0
 11 12  1  0  0  0
 11 43  1  0  0  0
 12 13  2  0  0  0
 12 21  1  0  0  0
 13 44  1  0  0  0
 14 15  1  0  0  0
 14 22  1  0  0  0
 14 25  1  0  0  0
 14 45  1  0  0  0
 15 16  1  0  0  0
 15 46  1  0  0  0
 15 47  1  0  0  0
 16 23  1  0  0  0
 16 48  1  0  0  0
 16 49  1  0  0  0
 17 26  1  0  0  0
 18 67  1  0  0  0
 22 50  1  0  0  0
 23 24  1  0  0  0
 23 51  1  0  0  0
 23 52  1  0  0  0
 24 25  1  0  0  0
 24 53  1  0  0  0
 24 54  1  0  0  0
 25 55  1  0  0  0
 25 56  1  0  0  0
 26 27  1  0  0  0
 26 57  1  0  0  0
 26 58  1  0  0  0
 27 28  2  0  0  0
 27 32  1  0  0  0
 28 29  1  0  0  0
 28 59  1  0  0  0
 29 30  2  0  0  0
 29 60  1  0  0  0
 30 31  1  0  0  0
 30 61  1  0  0  0
 31 32  2  0  0  0
 31 62  1  0  0  0
 32 63  1  0  0  0
 33 64  1  0  0  0
 33 65  1  0  0  0
 33 66  1  0  0  0
M  CHG  1  18   1
M  END
> <s_m_source_file>
../4zpg_ligand.sdf

> <i_m_source_file_index>
1

> <s_epik_input>
W2NIXTFbY0hdW2NIXVtjSF1bY0hdYzFbQ0gyXVtOQEgrXShbQ0BIXShbQ0gyXTIpW0NIM10pW0NIMl1bQ0gyXVtDQF0yM0MoW05IXVtDSF00W0NIMl1bQ0gyXVtDSDJdW0NIMl1bQ0gyXTQpPU5DKD1PKU4zYzVbY0hdW2NIXVtjSF1jKEYpW2NIXTU=

> <s_epik_cmdline>
J2VwaWtfYXBwJywgJy1pbWFlJywgJ2xpZ2FuZF9wcm8ubWFlJywgJy1vbWFlJywgJ2xpZ2FuZF9wcmVwLm1hZScsICctbXMnLCAnMScsICctcGgnLCAnNycsICctcGh0JywgJzAuNScsICctbnQn

> <r_lp_tautomer_probability>
0.999999996395998

> <r_epik_Ionization_Penalty>
  0.2831

> <r_epik_Ionization_Penalty_Charging>
  0.0044

> <r_epik_Ionization_Penalty_Neutral>
  0.2786

> <r_epik_State_Penalty>
  0.2710

> <r_epik_Charging_Adjusted_Penalty>
0.275458266087429

> <i_epik_Tot_Q>
1

> <i_epik_Tot_abs_Q>
1

> <s_epik_Chemistry_Notes>
This compound has an imine and may undergo hydrolysis.

$$$$
