4zqt_ligand
                    3D
 Schrodinger Suite 2020-3.
 41 41  0  0  1  0            999 V2000
   10.9180   12.8170   11.9810 N   0  3  0  0  0  0
   12.4840   12.6460   13.8510 C   0  0  0  0  0  0
   11.8450   11.5140   15.8830 C   0  0  0  0  0  0
   13.6050   13.1500   15.9180 C   0  0  0  0  0  0
   17.1170    9.5810    8.5020 C   0  0  0  0  0  0
   16.2830    8.7970    9.4930 C   0  0  0  0  0  0
   15.7040    7.5870    8.7930 C   0  0  0  0  0  0
   15.1880    9.6270   10.1630 C   0  0  0  0  0  0
   15.6620   10.4010   11.3880 C   0  0  1  0  0  0
   14.5890   11.0250   12.2650 C   0  0  0  0  0  0
   13.1970   11.6960   11.3210 P   0  0  2  0  0  0
   12.2700   10.5000   10.8580 O   0  5  0  0  0  0
   13.6540   12.4270   10.1320 O   0  0  0  0  0  0
   12.2940   12.8880   12.3610 C   0  0  1  0  0  0
   11.6840   11.7250   14.5210 C   0  0  0  0  0  0
   12.8100   12.2220   16.5830 C   0  0  0  0  0  0
   13.4440   13.3550   14.5540 C   0  0  0  0  0  0
   16.5430    9.5640   12.2730 C   0  0  0  0  0  0
   17.7630    9.8250   12.2960 O   0  0  0  0  0  0
   16.0500    8.6360   12.9790 O   0  5  0  0  0  0
   10.3332   13.5244   12.5873 H   0  0  0  0  0  0
   10.5441   11.7958   12.1466 H   0  0  0  0  0  0
   10.8177   13.0761   10.9167 H   0  0  0  0  0  0
   11.2137   10.7927   16.4019 H   0  0  0  0  0  0
   14.3555   13.7172   16.4686 H   0  0  0  0  0  0
   17.8801    8.9218    8.0625 H   0  0  0  0  0  0
   17.6092   10.4183    9.0184 H   0  0  0  0  0  0
   16.4676    9.9725    7.7051 H   0  0  0  0  0  0
   16.9514    8.4755   10.3054 H   0  0  0  0  0  0
   16.5155    7.0125    8.3224 H   0  0  0  0  0  0
   14.9921    7.9155    8.0215 H   0  0  0  0  0  0
   15.1835    6.9534    9.5262 H   0  0  0  0  0  0
   14.7944   10.3622    9.4456 H   0  0  0  0  0  0
   14.3744    8.9637   10.4917 H   0  0  0  0  0  0
   16.2229   11.2322   10.9358 H   0  0  0  0  0  0
   14.1888   10.2646   12.9518 H   0  0  0  0  0  0
   15.0250   11.8509   12.8462 H   0  0  0  0  0  0
   12.4971   13.9679   12.3108 H   0  0  0  0  0  0
   10.9261   11.1659   13.9723 H   0  0  0  0  0  0
   12.9453   12.0520   17.6511 H   0  0  0  0  0  0
   14.0752   14.0763   14.0349 H   0  0  0  0  0  0
  1 14  1  0  0  0
  1 21  1  0  0  0
  1 22  1  0  0  0
  1 23  1  0  0  0
  2 14  1  0  0  0
  2 15  2  0  0  0
  2 17  1  0  0  0
  3 15  1  0  0  0
  3 16  2  0  0  0
  3 24  1  0  0  0
  4 16  1  0  0  0
  4 17  2  0  0  0
  4 25  1  0  0  0
  5  6  1  0  0  0
  5 26  1  0  0  0
  5 27  1  0  0  0
  5 28  1  0  0  0
  6  7  1  0  0  0
  6  8  1  0  0  0
  6 29  1  0  0  0
  7 30  1  0  0  0
  7 31  1  0  0  0
  7 32  1  0  0  0
  8  9  1  0  0  0
  8 33  1  0  0  0
  8 34  1  0  0  0
  9 10  1  0  0  0
  9 18  1  0  0  0
  9 35  1  0  0  0
 10 11  1  0  0  0
 10 36  1  0  0  0
 10 37  1  0  0  0
 11 12  1  0  0  0
 11 13  2  0  0  0
 11 14  1  0  0  0
 14 38  1  0  0  0
 15 39  1  0  0  0
 16 40  1  0  0  0
 17 41  1  0  0  0
 18 19  2  0  0  0
 18 20  1  0  0  0
M  CHG  3   1   1  12  -1  20  -1
M  END
> <s_m_source_file>
../4zqt_ligand.sdf

> <i_m_source_file_index>
1

> <s_epik_input>
W2NIXTFbY0hdW2NIXVtjSF1bY0hdYzFbQ0BIXShbTkgzK10pW1BAXSg9TykoW09IXSlbQ0gyXVtDQEBIXShDKD1PKVtPSF0pW0NIMl1bQ0hdKFtDSDNdKVtDSDNd

> <s_epik_cmdline>
J2VwaWtfYXBwJywgJy1pbWFlJywgJ2xpZ2FuZF9wcm8ubWFlJywgJy1vbWFlJywgJ2xpZ2FuZF9wcmVwLm1hZScsICctbXMnLCAnMScsICctcGgnLCAnNycsICctcGh0JywgJzAuNScsICctbnQn

> <r_epik_Ionization_Penalty>
  0.0230

> <r_epik_Ionization_Penalty_Charging>
  0.0230

> <r_epik_Ionization_Penalty_Neutral>
  0.0000

> <r_epik_State_Penalty>
  0.0168

> <r_epik_Charging_Adjusted_Penalty>
0.0398077832502303

> <i_epik_Tot_Q>
-1

> <i_epik_Tot_abs_Q>
3

$$$$
