4zro_ligand
                    3D
 Schrodinger Suite 2020-3.
 97 97  0  0  1  0            999 V2000
   46.3520   -8.4620   26.4790 O   0  0  0  0  0  0
   45.8190   -9.3170   27.1360 C   0  0  0  0  0  0
   46.2820  -10.6720   27.1770 O   0  0  0  0  0  0
   47.5920  -10.9870   26.7090 C   0  0  0  0  0  0
   47.6530  -10.8970   25.1990 C   0  0  0  0  0  0
   47.8320  -12.4660   27.1190 C   0  0  0  0  0  0
   48.7090  -10.1040   27.3450 C   0  0  0  0  0  0
   44.6140   -8.9840   27.9380 N   0  0  0  0  0  0
   44.2330   -7.5840   28.0260 C   0  0  2  0  0  0
   45.2150   -6.8660   28.9420 C   0  0  0  0  0  0
   45.7290   -7.4360   29.8620 O   0  0  0  0  0  0
   42.8890   -7.4250   28.6100 C   0  0  0  0  0  0
   42.0210   -8.3630   28.0040 O   0  0  0  0  0  0
   45.5270   -5.4490   28.6530 N   0  0  0  0  0  0
   46.4070   -4.7340   29.4750 C   0  0  2  0  0  0
   45.5930   -3.5500   30.0280 C   0  0  0  0  0  0
   45.0690   -2.7380   29.2920 O   0  0  0  0  0  0
   47.5930   -4.2180   28.6700 C   0  0  0  0  0  0
   48.4910   -3.3440   29.5670 C   0  0  0  0  0  0
   48.3930   -5.4030   28.0670 C   0  0  0  0  0  0
   45.4530   -3.4180   31.4680 N   0  0  0  0  0  0
   44.6950   -2.3100   32.0110 C   0  0  2  0  0  0
   45.5660   -1.1040   31.7140 C   0  0  0  0  0  0
   46.7680   -1.1830   31.8690 O   0  0  0  0  0  0
   44.4970   -2.5300   33.5000 C   0  0  0  0  0  0
   43.2050   -3.3170   33.8250 C   0  0  0  0  0  0
   43.0330   -4.6040   32.9790 C   0  0  0  0  0  0
   43.1580   -3.7010   35.3300 C   0  0  0  0  0  0
   48.4370    1.1890   33.9990 O   0  0  0  0  0  0
   48.3880    1.1640   35.4220 C   0  0  0  0  0  0
   49.6530    0.4960   35.9980 C   0  0  0  0  0  0
   44.9780    0.1050   31.2180 N   0  0  0  0  0  0
   45.8040    1.2430   30.8960 C   0  0  1  0  0  0
   45.5080    1.6040   29.4270 C   0  0  0  0  0  0
   46.0920    0.5200   28.4950 C   0  0  1  0  0  0
   45.5430    2.3580   31.8840 C   0  0  0  0  0  0
   45.8790    0.7870   27.0870 C   0  0  0  0  0  0
   44.8400    1.1500   26.5650 O   0  0  0  0  0  0
   47.1330    0.5090   26.3480 N   0  0  0  0  0  0
   48.1030    0.1100   27.2360 C   0  0  0  0  0  0
   47.5740    0.5060   28.6350 C   0  0  0  0  0  0
   46.0950    2.0010   33.3070 C   0  0  0  0  0  0
   47.6150    2.1590   33.3710 C   0  0  0  0  0  0
   48.1490    3.1400   32.8600 O   0  0  0  0  0  0
   46.8612  -11.5233   24.7621 H   0  0  0  0  0  0
   48.6345  -11.2503   24.8500 H   0  0  0  0  0  0
   47.5076   -9.8520   24.8878 H   0  0  0  0  0  0
   47.0501  -13.1006   26.6765 H   0  0  0  0  0  0
   47.7980  -12.5528   28.2150 H   0  0  0  0  0  0
   48.8179  -12.7918   26.7558 H   0  0  0  0  0  0
   48.5509   -9.0528   27.0623 H   0  0  0  0  0  0
   49.6919  -10.4377   26.9810 H   0  0  0  0  0  0
   48.6721  -10.1987   28.4403 H   0  0  0  0  0  0
   44.0169   -9.7500   28.4545 H   0  0  0  0  0  0
   44.2191   -7.2020   26.9946 H   0  0  0  0  0  0
   42.9368   -7.6044   29.6942 H   0  0  0  0  0  0
   42.5265   -6.4034   28.4230 H   0  0  0  0  0  0
   40.9635   -8.4072   28.3035 H   0  0  0  0  0  0
   45.0625   -4.9573   27.7855 H   0  0  0  0  0  0
   46.7691   -5.4361   30.2405 H   0  0  0  0  0  0
   47.2092   -3.5981   27.8463 H   0  0  0  0  0  0
   47.8994   -2.5137   29.9801 H   0  0  0  0  0  0
   49.3229   -2.9406   28.9710 H   0  0  0  0  0  0
   48.8916   -3.9539   30.3901 H   0  0  0  0  0  0
   47.7290   -6.0086   27.4327 H   0  0  0  0  0  0
   48.7929   -6.0268   28.8800 H   0  0  0  0  0  0
   49.2242   -5.0135   27.4609 H   0  0  0  0  0  0
   45.9170   -4.1509   32.1444 H   0  0  0  0  0  0
   43.6962   -2.2248   31.5580 H   0  0  0  0  0  0
   45.3472   -3.1002   33.9026 H   0  0  0  0  0  0
   44.4340   -1.5570   34.0092 H   0  0  0  0  0  0
   42.3795   -2.6369   33.5680 H   0  0  0  0  0  0
   43.0643   -4.3469   31.9099 H   0  0  0  0  0  0
   42.0659   -5.0717   33.2155 H   0  0  0  0  0  0
   43.8467   -5.3068   33.2111 H   0  0  0  0  0  0
   43.2790   -2.7959   35.9433 H   0  0  0  0  0  0
   43.9713   -4.4070   35.5538 H   0  0  0  0  0  0
   42.1904   -4.1719   35.5582 H   0  0  0  0  0  0
   48.3233    2.1932   35.8048 H   0  0  0  0  0  0
   47.5050    0.5951   35.7486 H   0  0  0  0  0  0
   49.5951    0.4870   37.0964 H   0  0  0  0  0  0
   50.5422    1.0613   35.6823 H   0  0  0  0  0  0
   49.7240   -0.5368   35.6261 H   0  0  0  0  0  0
   43.8877    0.1611   31.0834 H   0  0  0  0  0  0
   46.8659    0.9835   31.0181 H   0  0  0  0  0  0
   44.4201    1.6657   29.2767 H   0  0  0  0  0  0
   45.9668    2.5749   29.1884 H   0  0  0  0  0  0
   45.6025   -0.4354   28.7351 H   0  0  0  0  0  0
   46.0376    3.2776   31.5381 H   0  0  0  0  0  0
   44.4597    2.5318   31.9630 H   0  0  0  0  0  0
   47.3640    0.5759   25.2746 H   0  0  0  0  0  0
   48.2489   -0.9773   27.1555 H   0  0  0  0  0  0
   49.0469    0.6248   27.0037 H   0  0  0  0  0  0
   47.9235    1.5053   28.9339 H   0  0  0  0  0  0
   47.8630   -0.2280   29.4016 H   0  0  0  0  0  0
   45.6426    2.6697   34.0541 H   0  0  0  0  0  0
   45.8418    0.9579   33.5474 H   0  0  0  0  0  0
  1  2  2  0  0  0
  2  3  1  0  0  0
  2  8  1  0  0  0
  3  4  1  0  0  0
  4  5  1  0  0  0
  4  6  1  0  0  0
  4  7  1  0  0  0
  5 45  1  0  0  0
  5 46  1  0  0  0
  5 47  1  0  0  0
  6 48  1  0  0  0
  6 49  1  0  0  0
  6 50  1  0  0  0
  7 51  1  0  0  0
  7 52  1  0  0  0
  7 53  1  0  0  0
  8  9  1  0  0  0
  8 54  1  0  0  0
  9 10  1  0  0  0
  9 12  1  0  0  0
  9 55  1  0  0  0
 10 11  2  0  0  0
 10 14  1  0  0  0
 12 13  1  0  0  0
 12 56  1  0  0  0
 12 57  1  0  0  0
 13 58  1  0  0  0
 14 15  1  0  0  0
 14 59  1  0  0  0
 15 16  1  0  0  0
 15 18  1  0  0  0
 15 60  1  0  0  0
 16 17  2  0  0  0
 16 21  1  0  0  0
 18 19  1  0  0  0
 18 20  1  0  0  0
 18 61  1  0  0  0
 19 62  1  0  0  0
 19 63  1  0  0  0
 19 64  1  0  0  0
 20 65  1  0  0  0
 20 66  1  0  0  0
 20 67  1  0  0  0
 21 22  1  0  0  0
 21 68  1  0  0  0
 22 23  1  0  0  0
 22 25  1  0  0  0
 22 69  1  0  0  0
 23 24  2  0  0  0
 23 32  1  0  0  0
 25 26  1  0  0  0
 25 70  1  0  0  0
 25 71  1  0  0  0
 26 27  1  0  0  0
 26 28  1  0  0  0
 26 72  1  0  0  0
 27 73  1  0  0  0
 27 74  1  0  0  0
 27 75  1  0  0  0
 28 76  1  0  0  0
 28 77  1  0  0  0
 28 78  1  0  0  0
 29 30  1  0  0  0
 29 43  1  0  0  0
 30 31  1  0  0  0
 30 79  1  0  0  0
 30 80  1  0  0  0
 31 81  1  0  0  0
 31 82  1  0  0  0
 31 83  1  0  0  0
 32 33  1  0  0  0
 32 84  1  0  0  0
 33 34  1  0  0  0
 33 36  1  0  0  0
 33 85  1  0  0  0
 34 35  1  0  0  0
 34 86  1  0  0  0
 34 87  1  0  0  0
 35 37  1  0  0  0
 35 41  1  0  0  0
 35 88  1  0  0  0
 36 42  1  0  0  0
 36 89  1  0  0  0
 36 90  1  0  0  0
 37 38  2  0  0  0
 37 39  1  0  0  0
 39 40  1  0  0  0
 39 91  1  0  0  0
 40 41  1  0  0  0
 40 92  1  0  0  0
 40 93  1  0  0  0
 41 94  1  0  0  0
 41 95  1  0  0  0
 42 43  1  0  0  0
 42 96  1  0  0  0
 42 97  1  0  0  0
 43 44  2  0  0  0
M  END
> <s_m_source_file>
../4zro_ligand.sdf

> <i_m_source_file_index>
1

> <s_epik_input>
W0NIM11DKFtDSDNdKShbQ0gzXSlPQyg9TylbTkhdW0NAQEhdKFtDSDJdW09IXSlDKD1PKVtOSF1bQ0BASF0oW0NIXShbQ0gzXSlbQ0gzXSlDKD1PKVtOSF1bQ0BASF0oW0NIMl1bQ0hdKFtDSDNdKVtDSDNdKUMoPU8pW05IXVtDQEBIXShbQ0gyXVtDQEhdMUMoPU8pW05IXVtDSDJdW0NIMl0xKVtDSDJdW0NIMl1DKD1PKU9bQ0gyXVtDSDNd

> <s_epik_cmdline>
J2VwaWtfYXBwJywgJy1pbWFlJywgJ2xpZ2FuZF9wcm8ubWFlJywgJy1vbWFlJywgJ2xpZ2FuZF9wcmVwLm1hZScsICctbXMnLCAnMScsICctcGgnLCAnNycsICctcGh0JywgJzAuNScsICctbnQn

> <r_lp_tautomer_probability>
1

> <r_epik_Ionization_Penalty>
  0.0000

> <r_epik_Ionization_Penalty_Charging>
  0.0000

> <r_epik_Ionization_Penalty_Neutral>
  0.0000

> <r_epik_State_Penalty>
 -0.0000

> <r_epik_Charging_Adjusted_Penalty>
0

> <i_epik_Tot_Q>
0

> <i_epik_Tot_abs_Q>
0

> <s_epik_Chemistry_Notes>
This compound has an ester and may undergo hydrolysis at high or low pH.

$$$$
