4zs2_ligand
                    3D
 Schrodinger Suite 2020-3.
 37 40  0  0  1  0            999 V2000
  173.7030    3.0190   33.9270 C   0  0  0  0  0  0
  173.3580    1.8090   34.3550 O   0  5  0  0  0  0
  173.1920    3.4900   32.7350 C   0  0  0  0  0  0
  173.5450    4.7440   32.2740 C   0  0  0  0  0  0
  173.0070    5.1480   31.0700 O   0  0  0  0  0  0
  173.3200    6.3840   30.5820 C   0  0  0  0  0  0
  172.7400    6.7220   29.3790 C   0  0  0  0  0  0
  173.0120    7.9550   28.8110 C   0  0  0  0  0  0
  172.4420    8.2720   27.6420 O   0  0  0  0  0  0
  173.8700    8.8360   29.4710 C   0  0  0  0  0  0
  174.4580    8.4870   30.6880 C   0  0  0  0  0  0
  174.1860    7.2460   31.2760 C   0  0  0  0  0  0
  174.7540    6.8510   32.5130 C   0  0  2  0  0  0
  174.4120    5.5710   33.0000 C   0  0  0  0  0  0
  174.9090    5.0830   34.2090 C   0  0  0  0  0  0
  174.5620    3.8160   34.6630 C   0  0  0  0  0  0
  175.4050    7.7410   33.3720 C   0  0  0  0  0  0
  174.6830    8.7660   33.9940 C   0  0  0  0  0  0
  175.2950    9.6640   34.8780 C   0  0  0  0  0  0
  176.6520    9.5490   35.1790 C   0  0  0  0  0  0
  177.3860    8.5340   34.5760 C   0  0  0  0  0  0
  176.7710    7.6420   33.6840 C   0  0  0  0  0  0
  177.6210    6.5890   33.0790 C   0  0  0  0  0  0
  177.5100    6.3060   31.8750 O   0  0  0  0  0  0
  178.4510    5.9850   33.7820 O   0  5  0  0  0  0
  172.5076    2.8709   32.1550 H   0  0  0  0  0  0
  172.0709    6.0229   28.8773 H   0  0  0  0  0  0
  171.7700    7.5563   27.1458 H   0  0  0  0  0  0
  174.0838    9.8097   29.0302 H   0  0  0  0  0  0
  175.1330    9.1849   31.1834 H   0  0  0  0  0  0
  175.7677    6.8314   32.0864 H   0  0  0  0  0  0
  175.5781    5.7035   34.8052 H   0  0  0  0  0  0
  174.9691    3.4479   35.6047 H   0  0  0  0  0  0
  173.6180    8.8681   33.7854 H   0  0  0  0  0  0
  174.7057   10.4593   35.3344 H   0  0  0  0  0  0
  177.1277   10.2414   35.8735 H   0  0  0  0  0  0
  178.4481    8.4301   34.7979 H   0  0  0  0  0  0
  1  2  1  0  0  0
  1  3  2  0  0  0
  1 16  1  0  0  0
  3  4  1  0  0  0
  3 26  1  0  0  0
  4  5  1  0  0  0
  4 14  2  0  0  0
  5  6  1  0  0  0
  6  7  2  0  0  0
  6 12  1  0  0  0
  7  8  1  0  0  0
  7 27  1  0  0  0
  8  9  1  0  0  0
  8 10  2  0  0  0
  9 28  1  0  0  0
 10 11  1  0  0  0
 10 29  1  0  0  0
 11 12  2  0  0  0
 11 30  1  0  0  0
 12 13  1  0  0  0
 13 14  1  0  0  0
 13 17  1  0  0  0
 13 31  1  0  0  0
 14 15  1  0  0  0
 15 16  2  0  0  0
 15 32  1  0  0  0
 16 33  1  0  0  0
 17 18  2  0  0  0
 17 22  1  0  0  0
 18 19  1  0  0  0
 18 34  1  0  0  0
 19 20  2  0  0  0
 19 35  1  0  0  0
 20 21  1  0  0  0
 20 36  1  0  0  0
 21 22  2  0  0  0
 21 37  1  0  0  0
 22 23  1  0  0  0
 23 24  2  0  0  0
 23 25  1  0  0  0
M  CHG  2   2  -1  25  -1
M  END
> <s_m_source_file>
../4zs2_ligand.sdf

> <i_m_source_file_index>
1

> <s_epik_input>
W2NIXTFbY0hdYyhbT0hdKVtjSF1jKE8yKWMxW0NIXShjKGMyMylbY0hdW2NIXWMoW09IXSlbY0hdMyljNFtjSF1bY0hdW2NIXVtjSF1jNEMoPU8pW09IXQ==

> <s_epik_cmdline>
J2VwaWtfYXBwJywgJy1pbWFlJywgJ2xpZ2FuZF9wcm8ubWFlJywgJy1vbWFlJywgJ2xpZ2FuZF9wcmVwLm1hZScsICctbXMnLCAnMScsICctcGgnLCAnNycsICctcGh0JywgJzAuNScsICctbnQn

> <r_lp_tautomer_probability>
1

> <r_epik_Ionization_Penalty>
  0.3106

> <r_epik_Ionization_Penalty_Charging>
  0.3083

> <r_epik_Ionization_Penalty_Neutral>
  0.0023

> <r_epik_State_Penalty>
  0.3022

> <r_epik_Charging_Adjusted_Penalty>
0.610467157112777

> <i_epik_Tot_Q>
-2

> <i_epik_Tot_abs_Q>
2

$$$$
