4zsa_ligand
                    3D
 Schrodinger Suite 2020-3.
 64 68  0  0  1  0            999 V2000
  199.8480    4.3480   87.0970 C   0  0  0  0  0  0
  196.1450    3.8100   82.3560 C   0  0  0  0  0  0
  195.9400    6.0690   79.3930 C   0  0  0  0  0  0
  196.9200    6.4340   78.4720 C   0  0  0  0  0  0
  196.5890    6.9290   77.2220 C   0  0  0  0  0  0
  194.2620    6.6800   77.7780 C   0  0  0  0  0  0
  192.5990    7.1940   76.1270 C   0  0  0  0  0  0
  197.3150    6.1700   81.4470 C   0  0  0  0  0  0
  205.3230    1.7370   93.9690 C   0  0  0  0  0  0
  204.8880    3.0590   93.3670 C   0  0  0  0  0  0
  204.2300    2.9280   92.3140 N   0  3  0  0  0  0
  202.8850    2.7480   92.6160 C   0  0  0  0  0  0
  201.9950    2.7650   91.3810 C   0  0  0  0  0  0
  202.1760    3.8650   90.5750 N   0  0  0  0  0  0
  201.3690    4.0050   89.4190 C   0  0  0  0  0  0
  201.7410    4.9330   88.4590 C   0  0  0  0  0  0
  200.9910    5.1100   87.3060 C   0  0  0  0  0  0
  199.0440    4.5250   85.8210 C   0  0  0  0  0  0
  199.2680    5.4690   85.1050 O   0  0  0  0  0  0
  198.0350    3.5790   85.4820 N   0  0  0  0  0  0
  197.2070    3.5530   84.3060 C   0  0  0  0  0  0
  196.3670    2.5360   84.1200 N   0  0  0  0  0  0
  195.7060    2.6640   82.9580 N   0  3  0  0  0  0
  195.7600    4.3680   81.0960 C   0  0  0  0  0  0
  196.3260    5.5530   80.6460 C   0  0  0  0  0  0
  195.2510    7.0520   76.8740 C   0  0  0  0  0  0
  192.9060    6.7900   77.4360 O   0  0  0  0  0  0
  194.6130    6.1890   79.0270 C   0  0  0  0  0  0
  197.7100    5.6060   82.6770 C   0  0  0  0  0  0
  197.1030    4.4020   83.1570 C   0  0  0  0  0  0
  199.4810    3.4030   88.0560 C   0  0  0  0  0  0
  200.2350    3.2300   89.2120 C   0  0  0  0  0  0
  203.5000    4.1730   90.3790 C   0  0  0  0  0  0
  204.4100    4.0820   91.5770 C   0  0  0  0  0  0
  197.9707    6.3274   78.7417 H   0  0  0  0  0  0
  197.3702    7.2188   76.5193 H   0  0  0  0  0  0
  191.5068    7.2360   76.0029 H   0  0  0  0  0  0
  193.0218    6.4729   75.4120 H   0  0  0  0  0  0
  193.0278    8.1897   75.9405 H   0  0  0  0  0  0
  197.7790    7.0962   81.1079 H   0  0  0  0  0  0
  205.8952    1.9240   94.8896 H   0  0  0  0  0  0
  205.9540    1.1960   93.2485 H   0  0  0  0  0  0
  204.4353    1.1321   94.2055 H   0  0  0  0  0  0
  204.2570    3.6000   94.0875 H   0  0  0  0  0  0
  205.7757    3.6640   93.1305 H   0  0  0  0  0  0
  204.6389    2.0368   91.8155 H   0  0  0  0  0  0
  202.7480    1.7774   93.1152 H   0  0  0  0  0  0
  202.5480    3.5545   93.2838 H   0  0  0  0  0  0
  202.2022    1.8758   90.7674 H   0  0  0  0  0  0
  200.9392    2.7595   91.6897 H   0  0  0  0  0  0
  202.6376    5.5334   88.6128 H   0  0  0  0  0  0
  201.2981    5.8468   86.5638 H   0  0  0  0  0  0
  197.8146    2.7426   86.1616 H   0  0  0  0  0  0
  195.0158    3.8582   80.4841 H   0  0  0  0  0  0
  194.9758    7.4398   75.8932 H   0  0  0  0  0  0
  193.8324    5.8942   79.7283 H   0  0  0  0  0  0
  198.4858    6.0919   83.2687 H   0  0  0  0  0  0
  198.5920    2.7926   87.8971 H   0  0  0  0  0  0
  199.9369    2.4885   89.9532 H   0  0  0  0  0  0
  203.9284    3.4900   89.6307 H   0  0  0  0  0  0
  203.5863    5.2096   90.0212 H   0  0  0  0  0  0
  204.2098    4.9576   92.2120 H   0  0  0  0  0  0
  205.4460    4.1247   91.2097 H   0  0  0  0  0  0
  194.9401    2.0443   82.4687 H   0  0  0  0  0  0
  1 17  2  0  0  0
  1 18  1  0  0  0
  1 31  1  0  0  0
  2 23  2  0  0  0
  2 24  1  0  0  0
  2 30  1  0  0  0
  3  4  2  0  0  0
  3 25  1  0  0  0
  3 28  1  0  0  0
  4  5  1  0  0  0
  4 35  1  0  0  0
  5 26  2  0  0  0
  5 36  1  0  0  0
  6 26  1  0  0  0
  6 27  1  0  0  0
  6 28  2  0  0  0
  7 27  1  0  0  0
  7 37  1  0  0  0
  7 38  1  0  0  0
  7 39  1  0  0  0
  8 25  1  0  0  0
  8 29  2  0  0  0
  8 40  1  0  0  0
  9 10  1  0  0  0
  9 41  1  0  0  0
  9 42  1  0  0  0
  9 43  1  0  0  0
 10 11  1  0  0  0
 10 44  1  0  0  0
 10 45  1  0  0  0
 11 12  1  0  0  0
 11 34  1  0  0  0
 11 46  1  0  0  0
 12 13  1  0  0  0
 12 47  1  0  0  0
 12 48  1  0  0  0
 13 14  1  0  0  0
 13 49  1  0  0  0
 13 50  1  0  0  0
 14 15  1  0  0  0
 14 33  1  0  0  0
 15 16  2  0  0  0
 15 32  1  0  0  0
 16 17  1  0  0  0
 16 51  1  0  0  0
 17 52  1  0  0  0
 18 19  2  0  0  0
 18 20  1  0  0  0
 20 21  1  0  0  0
 20 53  1  0  0  0
 21 22  1  0  0  0
 21 30  2  0  0  0
 22 23  1  0  0  0
 23 64  1  0  0  0
 24 25  2  0  0  0
 24 54  1  0  0  0
 26 55  1  0  0  0
 28 56  1  0  0  0
 29 30  1  0  0  0
 29 57  1  0  0  0
 31 32  2  0  0  0
 31 58  1  0  0  0
 32 59  1  0  0  0
 33 34  1  0  0  0
 33 60  1  0  0  0
 33 61  1  0  0  0
 34 62  1  0  0  0
 34 63  1  0  0  0
M  CHG  2  11   1  23   1
M  END
> <s_m_source_file>
../4zsa_ligand.sdf

> <i_m_source_file_index>
1

> <s_epik_input>
W0NIM11bQ0gyXVtOSCtdMVtDSDJdW0NIMl1OKFtDSDJdW0NIMl0xKWMoW2NIXVtjSF0yKVtjSF1bY0hdYzJDKD1PKVtOSF1jKFtuSF1uMyljKGMzNClbY0hdW2NIXWMoW2NIXTQpLWM1W2NIXVtjSF1bY0hdYyhbY0hdNSlPW0NIM10=

> <s_epik_cmdline>
J2VwaWtfYXBwJywgJy1pbWFlJywgJ2xpZ2FuZF9wcm8ubWFlJywgJy1vbWFlJywgJ2xpZ2FuZF9wcmVwLm1hZScsICctbXMnLCAnMScsICctcGgnLCAnNycsICctcGh0JywgJzAuNScsICctbnQn

> <r_epik_Ionization_Penalty>
  0.1084

> <r_epik_Ionization_Penalty_Charging>
  0.1084

> <r_epik_Ionization_Penalty_Neutral>
  0.0000

> <r_epik_State_Penalty>
  0.0982

> <r_epik_Charging_Adjusted_Penalty>
0.206513980591781

> <i_epik_Tot_Q>
2

> <i_epik_Tot_abs_Q>
2

$$$$
