4zsp_ligand
                    3D
 Schrodinger Suite 2020-3.
 40 42  0  0  1  0            999 V2000
   26.5490   57.2620   83.2420 O   0  0  0  0  0  0
   24.3760   56.8740   85.1060 C   0  0  2  0  0  0
   23.7180   55.4960   84.9520 C   0  0  0  0  0  0
   22.3000   55.7260   88.5720 C   0  0  0  0  0  0
   22.0180   55.3310   87.3410 N   0  3  0  0  0  0
   22.2010   55.5840   84.9080 C   0  0  0  0  0  0
   21.6700   56.1960   86.2050 C   0  0  2  0  0  0
   22.2780   57.5800   86.3210 C   0  0  1  0  0  0
   21.7040   58.2560   87.5510 C   0  0  0  0  0  0
   22.6490   54.8580   89.4960 N   0  0  0  0  0  0
   22.2610   57.3930   89.0490 S   0  0  0  0  0  0
   25.7910   56.6970   85.3410 N   0  0  0  0  0  0
   26.7590   56.9490   84.4040 C   0  0  0  0  0  0
   28.1460   56.8520   84.9190 C   0  0  0  0  0  0
   28.4400   56.0010   85.9650 C   0  0  0  0  0  0
   29.7280   55.9340   86.4340 C   0  0  0  0  0  0
   30.0980   54.8670   87.7450 Cl  0  0  0  0  0  0
   30.7290   56.7140   85.8770 C   0  0  0  0  0  0
   30.4330   57.5640   84.8330 C   0  0  0  0  0  0
   29.1370   57.6320   84.3480 C   0  0  0  0  0  0
   23.8050   57.6460   86.2770 C   0  0  0  0  0  0
   24.2385   57.4527   84.1807 H   0  0  0  0  0  0
   24.0598   55.0290   84.0166 H   0  0  0  0  0  0
   23.9981   54.8587   85.8037 H   0  0  0  0  0  0
   22.0313   54.2600   87.0904 H   0  0  0  0  0  0
   21.8948   56.2147   84.0604 H   0  0  0  0  0  0
   21.7786   54.5757   84.7862 H   0  0  0  0  0  0
   20.5726   56.2646   86.2382 H   0  0  0  0  0  0
   21.9849   58.1255   85.4119 H   0  0  0  0  0  0
   22.0444   59.3014   87.5873 H   0  0  0  0  0  0
   20.6053   58.2295   87.5049 H   0  0  0  0  0  0
   22.6925   53.7856   89.2549 H   0  0  0  0  0  0
   26.1457   56.3402   86.3192 H   0  0  0  0  0  0
   27.6577   55.3888   86.4137 H   0  0  0  0  0  0
   31.7467   56.6555   86.2631 H   0  0  0  0  0  0
   31.2157   58.1804   84.3907 H   0  0  0  0  0  0
   28.8982   58.2980   83.5188 H   0  0  0  0  0  0
   24.1929   57.2264   87.2169 H   0  0  0  0  0  0
   24.0997   58.7029   86.1982 H   0  0  0  0  0  0
   22.8974   55.2042   90.5101 H   0  0  0  0  0  0
  1 13  2  0  0  0
  2  3  1  0  0  0
  2 12  1  0  0  0
  2 21  1  0  0  0
  2 22  1  0  0  0
  3  6  1  0  0  0
  3 23  1  0  0  0
  3 24  1  0  0  0
  4  5  2  0  0  0
  4 10  1  0  0  0
  4 11  1  0  0  0
  5  7  1  0  0  0
  5 25  1  0  0  0
  6  7  1  0  0  0
  6 26  1  0  0  0
  6 27  1  0  0  0
  7  8  1  0  0  0
  7 28  1  0  0  0
  8  9  1  0  0  0
  8 21  1  0  0  0
  8 29  1  0  0  0
  9 11  1  0  0  0
  9 30  1  0  0  0
  9 31  1  0  0  0
 10 32  1  0  0  0
 10 40  1  0  0  0
 12 13  1  0  0  0
 12 33  1  0  0  0
 13 14  1  0  0  0
 14 15  2  0  0  0
 14 20  1  0  0  0
 15 16  1  0  0  0
 15 34  1  0  0  0
 16 17  1  0  0  0
 16 18  2  0  0  0
 18 19  1  0  0  0
 18 35  1  0  0  0
 19 20  2  0  0  0
 19 36  1  0  0  0
 20 37  1  0  0  0
 21 38  1  0  0  0
 21 39  1  0  0  0
M  CHG  1   5   1
M  END
> <s_m_source_file>
../4zsp_ligand.sdf

> <i_m_source_file_index>
1

> <s_epik_input>
W2NIXTFbY0hdW2NIXWMoQ2wpW2NIXWMxQyg9TylbTkhdW0NAQEhdKFtDSDJdW0NIMl0yKVtDSDJdW0NAQEhdKFtDQEBIXTIzKVtDSDJdU0MoXFtOSF0zKT1OL1tIXQ==

> <s_epik_cmdline>
J2VwaWtfYXBwJywgJy1pbWFlJywgJ2xpZ2FuZF9wcm8ubWFlJywgJy1vbWFlJywgJ2xpZ2FuZF9wcmVwLm1hZScsICctbXMnLCAnMScsICctcGgnLCAnNycsICctcGh0JywgJzAuNScsICctbnQn

> <r_lp_tautomer_probability>
1

> <r_epik_Ionization_Penalty>
  0.0030

> <r_epik_Ionization_Penalty_Charging>
  0.0030

> <r_epik_Ionization_Penalty_Neutral>
  0.0000

> <r_epik_State_Penalty>
 -0.0000

> <r_epik_Charging_Adjusted_Penalty>
0.00304699648464757

> <i_epik_Tot_Q>
1

> <i_epik_Tot_abs_Q>
1

> <s_epik_Chemistry_Notes>
This compound has an imine and may undergo hydrolysis.

$$$$
