4zsq_ligand
                    3D
 Schrodinger Suite 2020-3.
 45 48  0  0  1  0            999 V2000
   18.9830  -10.7930   -9.7340 C   0  0  2  0  0  0
   19.5160  -11.4090   -8.4530 C   0  0  0  0  0  0
   21.0340  -11.3690   -8.4430 C   0  0  1  0  0  0
   21.6020   -9.9690   -8.6560 C   0  0  2  0  0  0
   21.0010   -9.3480   -6.3850 C   0  0  0  0  0  0
   12.9640  -11.3470   -9.9700 C   0  0  0  0  0  0
   14.2390  -11.4370  -10.4920 C   0  0  0  0  0  0
   12.6820  -10.4960   -8.9200 C   0  0  0  0  0  0
   14.9730   -9.7910   -8.9010 C   0  0  0  0  0  0
   15.2360  -10.6590   -9.9500 C   0  0  0  0  0  0
   13.6890   -9.7200   -8.3930 C   0  0  0  0  0  0
   16.5960  -10.7740  -10.5080 C   0  0  0  0  0  0
   19.5900   -9.4300  -10.0380 C   0  0  0  0  0  0
   21.1010   -9.4220   -9.9860 C   0  0  0  0  0  0
   23.1360  -11.9800   -7.3610 C   0  0  0  0  0  0
   23.1240  -10.0500   -8.7240 C   0  0  0  0  0  0
   21.6150  -11.9680   -7.1840 C   0  0  1  0  0  0
   21.2120   -8.9850   -7.6150 N   0  3  0  0  0  0
   20.6610   -8.4280   -5.4330 N   0  0  0  0  0  0
   17.5650  -10.6290   -9.5430 N   0  0  0  0  0  0
   16.7660  -10.9970  -11.6990 O   0  0  0  0  0  0
   23.6520  -10.6640   -7.5420 O   0  0  0  0  0  0
   21.0870  -10.9920   -5.7330 S   0  0  0  0  0  0
   13.3090   -8.6520   -7.0960 Cl  0  0  0  0  0  0
   19.1859  -11.4579  -10.5865 H   0  0  0  0  0  0
   19.1356  -10.8447   -7.5888 H   0  0  0  0  0  0
   19.1832  -12.4551   -8.3830 H   0  0  0  0  0  0
   21.3375  -11.9949   -9.2951 H   0  0  0  0  0  0
   12.1669  -11.9579  -10.3938 H   0  0  0  0  0  0
   14.4522  -12.1132  -11.3198 H   0  0  0  0  0  0
   11.6725  -10.4394   -8.5128 H   0  0  0  0  0  0
   15.7676   -9.1732   -8.4827 H   0  0  0  0  0  0
   19.2921   -9.1131  -11.0483 H   0  0  0  0  0  0
   19.2298   -8.6958   -9.3023 H   0  0  0  0  0  0
   21.4537   -8.3879  -10.1133 H   0  0  0  0  0  0
   21.4863  -10.0445  -10.8070 H   0  0  0  0  0  0
   23.6056  -12.4179   -6.4678 H   0  0  0  0  0  0
   23.3976  -12.5807   -8.2446 H   0  0  0  0  0  0
   23.4206  -10.6483   -9.5981 H   0  0  0  0  0  0
   23.5415   -9.0363   -8.8147 H   0  0  0  0  0  0
   21.3346  -13.0316   -7.1942 H   0  0  0  0  0  0
   21.1025   -7.9291   -7.9033 H   0  0  0  0  0  0
   20.5717   -7.3652   -5.7023 H   0  0  0  0  0  0
   17.1708  -10.3631   -8.5511 H   0  0  0  0  0  0
   20.4767   -8.7504   -4.3976 H   0  0  0  0  0  0
  1  2  1  0  0  0
  1 13  1  0  0  0
  1 20  1  0  0  0
  1 25  1  0  0  0
  2  3  1  0  0  0
  2 26  1  0  0  0
  2 27  1  0  0  0
  3  4  1  0  0  0
  3 17  1  0  0  0
  3 28  1  0  0  0
  4 14  1  0  0  0
  4 16  1  0  0  0
  4 18  1  0  0  0
  5 18  2  0  0  0
  5 19  1  0  0  0
  5 23  1  0  0  0
  6  7  2  0  0  0
  6  8  1  0  0  0
  6 29  1  0  0  0
  7 10  1  0  0  0
  7 30  1  0  0  0
  8 11  2  0  0  0
  8 31  1  0  0  0
  9 10  2  0  0  0
  9 11  1  0  0  0
  9 32  1  0  0  0
 10 12  1  0  0  0
 11 24  1  0  0  0
 12 20  1  0  0  0
 12 21  2  0  0  0
 13 14  1  0  0  0
 13 33  1  0  0  0
 13 34  1  0  0  0
 14 35  1  0  0  0
 14 36  1  0  0  0
 15 17  1  0  0  0
 15 22  1  0  0  0
 15 37  1  0  0  0
 15 38  1  0  0  0
 16 22  1  0  0  0
 16 39  1  0  0  0
 16 40  1  0  0  0
 17 23  1  0  0  0
 17 41  1  0  0  0
 18 42  1  0  0  0
 19 43  1  0  0  0
 19 45  1  0  0  0
 20 44  1  0  0  0
M  CHG  1  18   1
M  END
> <s_m_source_file>
../4zsq_ligand.sdf

> <i_m_source_file_index>
1

> <s_epik_input>
W0hdL049QyhcW05IXTEpU1tDQEhdKFtDSDJdT1tDSDJdMilbQ0BIXShbQ0BAXTEyMylbQ0gyXVtDQEhdKFtDSDJdW0NIMl0zKVtOSF1DKD1PKWM0W2NIXVtjSF1bY0hdYyhDbClbY0hdNA==

> <s_epik_cmdline>
J2VwaWtfYXBwJywgJy1pbWFlJywgJ2xpZ2FuZF9wcm8ubWFlJywgJy1vbWFlJywgJ2xpZ2FuZF9wcmVwLm1hZScsICctbXMnLCAnMScsICctcGgnLCAnNycsICctcGh0JywgJzAuNScsICctbnQn

> <r_epik_Ionization_Penalty>
  0.0297

> <r_epik_Ionization_Penalty_Charging>
  0.0297

> <r_epik_Ionization_Penalty_Neutral>
  0.0000

> <r_epik_State_Penalty>
  0.0260

> <r_epik_Charging_Adjusted_Penalty>
0.055730778022848

> <i_epik_Tot_Q>
1

> <i_epik_Tot_abs_Q>
1

> <s_epik_Chemistry_Notes>
This compound has an imine and may undergo hydrolysis.

$$$$
