4zsr_ligand
                    3D
 Schrodinger Suite 2020-3.
 45 48  0  0  1  0            999 V2000
   22.2660   54.7010   89.7130 C   0  0  0  0  0  0
   20.0890   56.5010   86.2840 O   0  0  0  0  0  0
   20.1160   55.3240   87.1280 C   0  0  0  0  0  0
   21.6550   57.1890   88.7790 C   0  0  0  0  0  0
   22.1270   56.5320   87.4860 C   0  0  1  0  0  0
   21.3430   57.2070   86.3820 C   0  0  0  0  0  0
   30.3800   56.4510   86.1910 C   0  0  0  0  0  0
   29.0890   56.5280   85.7080 C   0  0  0  0  0  0
   30.6560   55.5960   87.2330 C   0  0  0  0  0  0
   28.3390   54.9100   87.2860 C   0  0  0  0  0  0
   28.0710   55.7770   86.2430 C   0  0  0  0  0  0
   29.6310   54.8350   87.7680 C   0  0  0  0  0  0
   26.6990   55.8950   85.6930 C   0  0  0  0  0  0
   23.7290   54.3130   86.3380 C   0  0  0  0  0  0
   22.2170   54.3450   86.2400 C   0  0  0  0  0  0
   23.6410   56.6620   87.2850 C   0  0  0  0  0  0
   24.3020   55.6980   86.2960 C   0  0  1  0  0  0
   21.5980   55.1180   87.3980 C   0  0  2  0  0  0
   21.8880   54.2580   88.5480 N   0  3  0  0  0  0
   22.5740   53.8150   90.7300 N   0  0  0  0  0  0
   25.7190   55.5860   86.6000 N   0  0  0  0  0  0
   26.5300   56.2160   84.5170 O   0  0  0  0  0  0
   22.3470   56.3810   90.2340 S   0  0  0  0  0  0
   30.0180   53.7660   89.0710 Cl  0  0  0  0  0  0
   19.5452   55.5192   88.0478 H   0  0  0  0  0  0
   19.6659   54.4766   86.5901 H   0  0  0  0  0  0
   21.9669   58.2438   88.7894 H   0  0  0  0  0  0
   20.5583   57.1303   88.8410 H   0  0  0  0  0  0
   21.8768   57.1412   85.4224 H   0  0  0  0  0  0
   21.1514   58.2630   86.6234 H   0  0  0  0  0  0
   31.1706   57.0598   85.7524 H   0  0  0  0  0  0
   28.8718   57.2028   84.8800 H   0  0  0  0  0  0
   31.6676   55.5190   87.6316 H   0  0  0  0  0  0
   27.5472   54.2985   87.7188 H   0  0  0  0  0  0
   24.0251   53.8383   87.2851 H   0  0  0  0  0  0
   24.1390   53.7369   85.4953 H   0  0  0  0  0  0
   21.9208   54.8317   85.2990 H   0  0  0  0  0  0
   21.8264   53.3169   86.2598 H   0  0  0  0  0  0
   23.8763   57.6703   86.9134 H   0  0  0  0  0  0
   24.1538   56.4957   88.2438 H   0  0  0  0  0  0
   24.1631   56.1026   85.2826 H   0  0  0  0  0  0
   21.7691   53.1770   88.3827 H   0  0  0  0  0  0
   22.5610   52.7319   90.5385 H   0  0  0  0  0  0
   26.0429   55.2410   87.5930 H   0  0  0  0  0  0
   22.8319   54.1937   91.7300 H   0  0  0  0  0  0
  1 19  2  0  0  0
  1 20  1  0  0  0
  1 23  1  0  0  0
  2  3  1  0  0  0
  2  6  1  0  0  0
  3 18  1  0  0  0
  3 25  1  0  0  0
  3 26  1  0  0  0
  4  5  1  0  0  0
  4 23  1  0  0  0
  4 27  1  0  0  0
  4 28  1  0  0  0
  5  6  1  0  0  0
  5 16  1  0  0  0
  5 18  1  0  0  0
  6 29  1  0  0  0
  6 30  1  0  0  0
  7  8  2  0  0  0
  7  9  1  0  0  0
  7 31  1  0  0  0
  8 11  1  0  0  0
  8 32  1  0  0  0
  9 12  2  0  0  0
  9 33  1  0  0  0
 10 11  2  0  0  0
 10 12  1  0  0  0
 10 34  1  0  0  0
 11 13  1  0  0  0
 12 24  1  0  0  0
 13 21  1  0  0  0
 13 22  2  0  0  0
 14 15  1  0  0  0
 14 17  1  0  0  0
 14 35  1  0  0  0
 14 36  1  0  0  0
 15 18  1  0  0  0
 15 37  1  0  0  0
 15 38  1  0  0  0
 16 17  1  0  0  0
 16 39  1  0  0  0
 16 40  1  0  0  0
 17 21  1  0  0  0
 17 41  1  0  0  0
 18 19  1  0  0  0
 19 42  1  0  0  0
 20 43  1  0  0  0
 20 45  1  0  0  0
 21 44  1  0  0  0
M  CHG  1  19   1
M  END
> <s_m_source_file>
../4zsr_ligand.sdf

> <i_m_source_file_index>
1

> <s_epik_input>
W0NIMl0xU0MoPU5cW0hdKVxbTkhdW0NAXShbQ0BdMTIzKShbQ0gyXU9bQ0gyXTIpW0NIMl1bQ0gyXVtDQEBIXShbQ0gyXTMpW05IXUMoPU8pYzRbY0hdW2NIXVtjSF1jKENsKVtjSF00

> <s_epik_cmdline>
J2VwaWtfYXBwJywgJy1pbWFlJywgJ2xpZ2FuZF9wcm8ubWFlJywgJy1vbWFlJywgJ2xpZ2FuZF9wcmVwLm1hZScsICctbXMnLCAnMScsICctcGgnLCAnNycsICctcGh0JywgJzAuNScsICctbnQn

> <r_epik_Ionization_Penalty>
  0.2317

> <r_epik_Ionization_Penalty_Charging>
  0.2317

> <r_epik_Ionization_Penalty_Neutral>
  0.0000

> <r_epik_State_Penalty>
  0.2200

> <r_epik_Charging_Adjusted_Penalty>
0.451676181433392

> <i_epik_Tot_Q>
1

> <i_epik_Tot_abs_Q>
1

> <s_epik_Chemistry_Notes>
This compound has an imine and may undergo hydrolysis.

$$$$
