4ztl_ligand
                    3D
 Schrodinger Suite 2020-3.
 54 57  0  0  1  0            999 V2000
   29.9840    8.3050   -8.3570 C   0  0  0  0  0  0
   29.3930    7.6580   -7.2890 N   0  0  0  0  0  0
   29.6400    6.3580   -7.0870 C   0  0  0  0  0  0
   30.4410    5.5940   -7.8700 N   0  0  0  0  0  0
   31.0480    6.1970   -8.9510 C   0  0  0  0  0  0
   30.8160    7.5820   -9.2960 C   0  0  0  0  0  0
   29.6700    9.6470   -8.4930 N   0  0  0  0  0  0
   29.0090    5.7600   -5.9890 N   0  0  0  0  0  0
   31.5340    8.2510  -10.4030 C   0  0  0  0  0  0
   28.8730   10.5060   -7.5910 C   0  0  1  0  0  0
   29.6580   10.9050   -6.3050 C   0  0  1  0  0  0
   30.4140   12.2200   -6.7180 C   0  0  1  0  0  0
   29.5890   12.8820   -7.8680 C   0  0  2  0  0  0
   28.4690   11.8580   -8.2210 C   0  0  0  0  0  0
   28.7590   11.1320   -5.1950 O   0  0  0  0  0  0
   30.7280   13.1220   -5.6730 O   0  0  0  0  0  0
   30.4830   13.1970   -9.1190 C   0  0  0  0  0  0
   29.7310   13.9110  -10.0950 O   0  0  0  0  0  0
   28.1300    6.4270   -4.9900 C   0  0  0  0  0  0
   27.4470    5.4410   -4.0280 C   0  0  0  0  0  0
   26.4460    6.1490   -3.1080 C   0  0  0  0  0  0
   32.8040    7.3900  -11.2790 S   0  0  0  0  0  0
   33.1780    8.8510  -12.1450 C   0  0  0  0  0  0
   32.3400    9.9150  -11.7180 C   0  0  0  0  0  0
   31.4520    9.5650  -10.7110 N   0  0  0  0  0  0
   34.1500    9.0430  -13.1350 C   0  0  0  0  0  0
   34.3100   10.3160  -13.7640 C   0  0  0  0  0  0
   33.4650   11.4070  -13.3820 C   0  0  0  0  0  0
   32.4980   11.2070  -12.3430 C   0  0  0  0  0  0
   31.7273    5.6086   -9.5678 H   0  0  0  0  0  0
   30.1010   10.0670   -9.4138 H   0  0  0  0  0  0
   29.2198    4.6837   -5.9044 H   0  0  0  0  0  0
   28.0080    9.8510   -7.4104 H   0  0  0  0  0  0
   30.3017   10.1121   -5.8964 H   0  0  0  0  0  0
   31.4639   12.0137   -6.9732 H   0  0  0  0  0  0
   29.1676   13.8466   -7.5486 H   0  0  0  0  0  0
   28.3794   11.7423   -9.3112 H   0  0  0  0  0  0
   27.5031   12.1819   -7.8061 H   0  0  0  0  0  0
   28.1594   10.3015   -4.7941 H   0  0  0  0  0  0
   31.3067   12.7766   -4.8037 H   0  0  0  0  0  0
   31.3436   13.8085   -8.8100 H   0  0  0  0  0  0
   30.8418   12.2552   -9.5598 H   0  0  0  0  0  0
   30.2045   14.2143  -11.0404 H   0  0  0  0  0  0
   28.7274    7.1229   -4.3827 H   0  0  0  0  0  0
   27.3377    6.9834   -5.5122 H   0  0  0  0  0  0
   26.9057    4.6787   -4.6076 H   0  0  0  0  0  0
   28.2082    4.9531   -3.4015 H   0  0  0  0  0  0
   25.9800    5.4122   -2.4371 H   0  0  0  0  0  0
   25.6685    6.6342   -3.7164 H   0  0  0  0  0  0
   26.9711    6.9086   -2.5103 H   0  0  0  0  0  0
   34.7915    8.2122  -13.4289 H   0  0  0  0  0  0
   35.0717   10.4559  -14.5310 H   0  0  0  0  0  0
   33.5558   12.3754  -13.8741 H   0  0  0  0  0  0
   31.8741   12.0407  -12.0207 H   0  0  0  0  0  0
  1  2  2  0  0  0
  1  6  1  0  0  0
  1  7  1  0  0  0
  2  3  1  0  0  0
  3  4  2  0  0  0
  3  8  1  0  0  0
  4  5  1  0  0  0
  5  6  2  0  0  0
  5 30  1  0  0  0
  6  9  1  0  0  0
  7 10  1  0  0  0
  7 31  1  0  0  0
  8 19  1  0  0  0
  8 32  1  0  0  0
  9 22  1  0  0  0
  9 25  2  0  0  0
 10 11  1  0  0  0
 10 14  1  0  0  0
 10 33  1  0  0  0
 11 12  1  0  0  0
 11 15  1  0  0  0
 11 34  1  0  0  0
 12 13  1  0  0  0
 12 16  1  0  0  0
 12 35  1  0  0  0
 13 14  1  0  0  0
 13 17  1  0  0  0
 13 36  1  0  0  0
 14 37  1  0  0  0
 14 38  1  0  0  0
 15 39  1  0  0  0
 16 40  1  0  0  0
 17 18  1  0  0  0
 17 41  1  0  0  0
 17 42  1  0  0  0
 18 43  1  0  0  0
 19 20  1  0  0  0
 19 44  1  0  0  0
 19 45  1  0  0  0
 20 21  1  0  0  0
 20 46  1  0  0  0
 20 47  1  0  0  0
 21 48  1  0  0  0
 21 49  1  0  0  0
 21 50  1  0  0  0
 22 23  1  0  0  0
 23 24  2  0  0  0
 23 26  1  0  0  0
 24 25  1  0  0  0
 24 29  1  0  0  0
 26 27  2  0  0  0
 26 51  1  0  0  0
 27 28  1  0  0  0
 27 52  1  0  0  0
 28 29  2  0  0  0
 28 53  1  0  0  0
 29 54  1  0  0  0
M  END
> <s_m_source_file>
../4ztl_ligand.sdf

> <i_m_source_file_index>
1

> <s_epik_input>
W09IXVtDSDJdW0NAQEhdKFtDSDJdMSlbQ0BASF0oW09IXSlbQ0BASF0oW09IXSlbQ0BASF0xW05IXWMybmMoW05IXVtDSDJdW0NIMl1bQ0gzXSluW2NIXWMyLWMoczMpbmMoYzM0KVtjSF1bY0hdW2NIXVtjSF00

> <s_epik_cmdline>
J2VwaWtfYXBwJywgJy1pbWFlJywgJ2xpZ2FuZF9wcm8ubWFlJywgJy1vbWFlJywgJ2xpZ2FuZF9wcmVwLm1hZScsICctbXMnLCAnMScsICctcGgnLCAnNycsICctcGh0JywgJzAuNScsICctbnQn

> <r_lp_tautomer_probability>
0.999999624730965

> <r_epik_Ionization_Penalty>
  0.0411

> <r_epik_Ionization_Penalty_Charging>
  0.0000

> <r_epik_Ionization_Penalty_Neutral>
  0.0411

> <r_epik_State_Penalty>
  0.0279

> <r_epik_Charging_Adjusted_Penalty>
0.0279182602720544

> <i_epik_Tot_Q>
0

> <i_epik_Tot_abs_Q>
0

$$$$
