4ztm_ligand
                    3D
 Schrodinger Suite 2020-3.
 53 57  0  0  1  0            999 V2000
   29.3500    7.7390   -7.1130 C   0  0  0  0  0  0
   28.6970    7.2840   -5.9920 N   0  0  0  0  0  0
   28.7070    6.0430   -5.6240 C   0  0  0  0  0  0
   29.4030    5.0770   -6.3980 N   0  0  0  0  0  0
   30.1060    5.4050   -7.5570 C   0  0  0  0  0  0
   30.0660    6.8750   -7.9330 C   0  0  0  0  0  0
   29.1840    9.1250   -7.3020 N   0  0  0  0  0  0
   27.9980    5.6470   -4.4980 N   0  0  0  0  0  0
   30.6870    4.4890   -8.2030 O   0  0  0  0  0  0
   30.7900    7.3540   -9.1320 C   0  0  0  0  0  0
   28.5500   10.2460   -6.5870 C   0  0  1  0  0  0
   28.6730   10.1800   -5.0540 C   0  0  1  0  0  0
   28.3630   11.6190   -4.5680 C   0  0  1  0  0  0
   28.6960   12.5010   -5.7690 C   0  0  2  0  0  0
   29.3010   11.5670   -6.8170 C   0  0  0  0  0  0
   27.7590    9.2630   -4.4810 O   0  0  0  0  0  0
   26.9960   11.8770   -4.1550 O   0  0  0  0  0  0
   29.5030   13.7590   -5.4140 C   0  0  0  0  0  0
   29.1520   14.7890   -6.3360 O   0  0  0  0  0  0
   27.9780    4.4410   -3.7090 C   0  0  0  0  0  0
   26.6920    4.0520   -2.9930 C   0  0  0  0  0  0
   27.8380    4.6730   -2.2160 C   0  0  0  0  0  0
   31.9060    6.3100   -9.9720 S   0  0  0  0  0  0
   32.4900    7.6690  -10.9170 C   0  0  0  0  0  0
   31.7180    8.8210  -10.6090 C   0  0  0  0  0  0
   30.7820    8.6280   -9.5890 N   0  0  0  0  0  0
   33.5740    7.7470  -11.8240 C   0  0  0  0  0  0
   33.8940    9.0010  -12.4750 C   0  0  0  0  0  0
   33.1030   10.1380  -12.2250 C   0  0  0  0  0  0
   32.0270   10.0450  -11.2800 C   0  0  0  0  0  0
   28.1325    7.9864   -5.3612 H   0  0  0  0  0  0
   29.6990    9.3030   -8.2576 H   0  0  0  0  0  0
   27.3463    6.4913   -4.2288 H   0  0  0  0  0  0
   27.5286   10.1552   -6.9852 H   0  0  0  0  0  0
   29.6325    9.7612   -4.7164 H   0  0  0  0  0  0
   28.8955   11.8389   -3.6309 H   0  0  0  0  0  0
   27.7946   12.9672   -6.1934 H   0  0  0  0  0  0
   30.3788   11.4071   -6.6660 H   0  0  0  0  0  0
   29.1226   11.9161   -7.8448 H   0  0  0  0  0  0
   27.8332    8.1915   -4.7185 H   0  0  0  0  0  0
   26.5682   11.3340   -3.2993 H   0  0  0  0  0  0
   29.2613   14.0721   -4.3876 H   0  0  0  0  0  0
   30.5780   13.5375   -5.4862 H   0  0  0  0  0  0
   29.6207   15.7810   -6.2570 H   0  0  0  0  0  0
   28.6633    3.9297   -4.4011 H   0  0  0  0  0  0
   25.8479    4.6077   -3.4275 H   0  0  0  0  0  0
   26.5192    2.9720   -3.1104 H   0  0  0  0  0  0
   28.6184    4.1103   -1.6828 H   0  0  0  0  0  0
   27.9471    5.7460   -1.9998 H   0  0  0  0  0  0
   34.1708    6.8593  -12.0336 H   0  0  0  0  0  0
   34.7434    9.0637  -13.1552 H   0  0  0  0  0  0
   33.3049   11.0761  -12.7420 H   0  0  0  0  0  0
   31.4292   10.9315  -11.0681 H   0  0  0  0  0  0
  1  2  1  0  0  0
  1  6  2  0  0  0
  1  7  1  0  0  0
  2  3  1  0  0  0
  2 31  1  0  0  0
  3  4  2  0  0  0
  3  8  1  0  0  0
  4  5  1  0  0  0
  5  6  1  0  0  0
  5  9  2  0  0  0
  6 10  1  0  0  0
  7 11  1  0  0  0
  7 32  1  0  0  0
  8 20  1  0  0  0
  8 33  1  0  0  0
 10 23  1  0  0  0
 10 26  2  0  0  0
 11 12  1  0  0  0
 11 15  1  0  0  0
 11 34  1  0  0  0
 12 13  1  0  0  0
 12 16  1  0  0  0
 12 35  1  0  0  0
 13 14  1  0  0  0
 13 17  1  0  0  0
 13 36  1  0  0  0
 14 15  1  0  0  0
 14 18  1  0  0  0
 14 37  1  0  0  0
 15 38  1  0  0  0
 15 39  1  0  0  0
 16 40  1  0  0  0
 17 41  1  0  0  0
 18 19  1  0  0  0
 18 42  1  0  0  0
 18 43  1  0  0  0
 19 44  1  0  0  0
 20 21  1  0  0  0
 20 22  1  0  0  0
 20 45  1  0  0  0
 21 22  1  0  0  0
 21 46  1  0  0  0
 21 47  1  0  0  0
 22 48  1  0  0  0
 22 49  1  0  0  0
 23 24  1  0  0  0
 24 25  2  0  0  0
 24 27  1  0  0  0
 25 26  1  0  0  0
 25 30  1  0  0  0
 27 28  2  0  0  0
 27 50  1  0  0  0
 28 29  1  0  0  0
 28 51  1  0  0  0
 29 30  2  0  0  0
 29 52  1  0  0  0
 30 53  1  0  0  0
M  END
> <s_m_source_file>
../4ztm_ligand.sdf

> <i_m_source_file_index>
1

> <s_epik_input>
W09IXVtDSDJdW0NAQEhdKFtDSDJdMSlbQ0BASF0oW09IXSlbQ0BASF0oW09IXSlbQ0BASF0xW05IXWMyW25IXWMoW05IXVtDSF0zW0NIMl1bQ0gyXTMpbmMoPU8pYzItYyhzNCluYyhjNDUpW2NIXVtjSF1bY0hdW2NIXTU=

> <s_epik_cmdline>
J2VwaWtfYXBwJywgJy1pbWFlJywgJ2xpZ2FuZF9wcm8ubWFlJywgJy1vbWFlJywgJ2xpZ2FuZF9wcmVwLm1hZScsICctbXMnLCAnMScsICctcGgnLCAnNycsICctcGh0JywgJzAuNScsICctbnQn

> <r_lp_tautomer_probability>
1

> <r_epik_Ionization_Penalty>
  0.0075

> <r_epik_Ionization_Penalty_Charging>
  0.0069

> <r_epik_Ionization_Penalty_Neutral>
  0.0006

> <r_epik_State_Penalty>
 -0.0000

> <r_epik_Charging_Adjusted_Penalty>
0.0068880590034099

> <i_epik_Tot_Q>
0

> <i_epik_Tot_abs_Q>
0

$$$$
