4ztn_ligand
                    3D
 Schrodinger Suite 2020-3.
 54 58  0  0  1  0            999 V2000
   29.6130    7.9170   -6.5220 C   0  0  0  0  0  0
   28.8570    7.4810   -5.4810 N   0  0  0  0  0  0
   28.6570    6.1740   -5.2590 C   0  0  0  0  0  0
   29.2200    5.2430   -6.0920 N   0  0  0  0  0  0
   30.0090    5.5390   -7.1930 C   0  0  0  0  0  0
   30.2260    6.9480   -7.4350 C   0  0  3  0  0  0
   29.7890    9.2690   -6.6720 N   0  0  0  0  0  0
   27.8500    5.7790   -4.1380 N   0  0  0  0  0  0
   30.4660    4.6150   -7.8720 O   0  0  0  0  0  0
   31.0470    7.3790   -8.5690 C   0  0  0  0  0  0
   29.0690   10.3990   -6.0870 C   0  0  1  0  0  0
   29.0880   10.3430   -4.5140 C   0  0  0  0  0  0
   28.5500   11.5590   -3.9090 N   0  3  0  0  0  0
   28.9970   12.8600   -4.4260 C   0  0  0  0  0  0
   29.0690   12.9210   -5.9260 C   0  0  0  0  0  0
   29.7450   11.6960   -6.5300 C   0  0  0  0  0  0
   26.6650    6.5880   -3.8020 C   0  0  0  0  0  0
   26.2100    6.2980   -2.3920 C   0  0  0  0  0  0
   25.9830    4.9060   -2.1860 O   0  0  0  0  0  0
   27.1870    4.1860   -2.4070 C   0  0  0  0  0  0
   27.6740    4.3510   -3.8210 C   0  0  0  0  0  0
   32.0930    6.3400   -9.5140 S   0  0  0  0  0  0
   32.5510    7.7240  -10.4640 C   0  0  0  0  0  0
   31.8580    8.8510  -10.0140 C   0  0  0  0  0  0
   31.0180    8.6280   -8.9290 N   0  0  0  0  0  0
   33.4550    7.8130  -11.5170 C   0  0  0  0  0  0
   33.6570    9.0440  -12.1290 C   0  0  0  0  0  0
   32.9770   10.1680  -11.6890 C   0  0  0  0  0  0
   32.0880   10.0850  -10.6260 C   0  0  0  0  0  0
   31.1242    6.9186   -6.8007 H   0  0  0  0  0  0
   30.6281    9.4484   -7.3602 H   0  0  0  0  0  0
   28.0452   10.3187   -6.4813 H   0  0  0  0  0  0
   28.4795    9.4936   -4.1700 H   0  0  0  0  0  0
   30.1233   10.2179   -4.1640 H   0  0  0  0  0  0
   27.4562   11.5731   -4.0248 H   0  0  0  0  0  0
   28.8058   11.5805   -2.8394 H   0  0  0  0  0  0
   28.2981   13.6441   -4.0994 H   0  0  0  0  0  0
   30.0030   13.0818   -4.0404 H   0  0  0  0  0  0
   28.0517   12.9839   -6.3396 H   0  0  0  0  0  0
   29.6438   13.8083   -6.2297 H   0  0  0  0  0  0
   30.7973   11.6890   -6.2096 H   0  0  0  0  0  0
   29.6959   11.7794   -7.6257 H   0  0  0  0  0  0
   26.9148    7.6561   -3.8845 H   0  0  0  0  0  0
   25.8477    6.3478   -4.4979 H   0  0  0  0  0  0
   26.9812    6.6314   -1.6820 H   0  0  0  0  0  0
   25.2709    6.8348   -2.1920 H   0  0  0  0  0  0
   27.9661    4.5560   -1.7242 H   0  0  0  0  0  0
   27.0139    3.1159   -2.2202 H   0  0  0  0  0  0
   26.9365    3.9110   -4.5084 H   0  0  0  0  0  0
   28.6360    3.8293   -3.9326 H   0  0  0  0  0  0
   33.9969    6.9305  -11.8571 H   0  0  0  0  0  0
   34.3557    9.1260  -12.9616 H   0  0  0  0  0  0
   33.1415   11.1262  -12.1819 H   0  0  0  0  0  0
   31.5727   10.9775  -10.2712 H   0  0  0  0  0  0
  1  2  2  0  0  0
  1  6  1  0  0  0
  1  7  1  0  0  0
  2  3  1  0  0  0
  3  4  2  0  0  0
  3  8  1  0  0  0
  4  5  1  0  0  0
  5  6  1  0  0  0
  5  9  2  0  0  0
  6 10  1  0  0  0
  6 30  1  0  0  0
  7 11  1  0  0  0
  7 31  1  0  0  0
  8 17  1  0  0  0
  8 21  1  0  0  0
 10 22  1  0  0  0
 10 25  2  0  0  0
 11 12  1  0  0  0
 11 16  1  0  0  0
 11 32  1  0  0  0
 12 13  1  0  0  0
 12 33  1  0  0  0
 12 34  1  0  0  0
 13 14  1  0  0  0
 13 35  1  0  0  0
 13 36  1  0  0  0
 14 15  1  0  0  0
 14 37  1  0  0  0
 14 38  1  0  0  0
 15 16  1  0  0  0
 15 39  1  0  0  0
 15 40  1  0  0  0
 16 41  1  0  0  0
 16 42  1  0  0  0
 17 18  1  0  0  0
 17 43  1  0  0  0
 17 44  1  0  0  0
 18 19  1  0  0  0
 18 45  1  0  0  0
 18 46  1  0  0  0
 19 20  1  0  0  0
 20 21  1  0  0  0
 20 47  1  0  0  0
 20 48  1  0  0  0
 21 49  1  0  0  0
 21 50  1  0  0  0
 22 23  1  0  0  0
 23 24  2  0  0  0
 23 26  1  0  0  0
 24 25  1  0  0  0
 24 29  1  0  0  0
 26 27  2  0  0  0
 26 51  1  0  0  0
 27 28  1  0  0  0
 27 52  1  0  0  0
 28 29  2  0  0  0
 28 53  1  0  0  0
 29 54  1  0  0  0
M  CHG  1  13   1
M  END
> <s_m_source_file>
../4ztn_ligand.sdf

> <i_m_source_file_index>
1

> <s_epik_input>
W0NIMl0xW0NIMl1bQ0gyXVtOSDIrXVtDSDJdW0NAQEhdMVtOSF1DMj1OQyhOM1tDSDJdW0NIMl1PW0NIMl1bQ0gyXTMpPU5DKD1PKVtDSF0yYyhzNCluYyhjNDUpW2NIXVtjSF1bY0hdW2NIXTU=

> <s_epik_cmdline>
J2VwaWtfYXBwJywgJy1pbWFlJywgJ2xpZ2FuZF9wcm8ubWFlJywgJy1vbWFlJywgJ2xpZ2FuZF9wcmVwLm1hZScsICctbXMnLCAnMScsICctcGgnLCAnNycsICctcGh0JywgJzAuNScsICctbnQn

> <r_lp_tautomer_probability>
1

> <r_epik_Ionization_Penalty>
  6.1520

> <r_epik_Ionization_Penalty_Charging>
  0.0006

> <r_epik_Ionization_Penalty_Neutral>
  6.1514

> <r_epik_State_Penalty>
 -0.0000

> <r_epik_Charging_Adjusted_Penalty>
0.000585689663420425

> <i_epik_Tot_Q>
1

> <i_epik_Tot_abs_Q>
1

> <s_epik_Chemistry_Notes>
This compound has an imine and may undergo hydrolysis.

$$$$
