4zud_ligand
                    3D
 Schrodinger Suite 2020-3.
 58 61  0  0  1  0            999 V2000
  -38.4570   63.3650   29.0820 C   0  0  0  0  0  0
  -39.0900   64.3770   28.3620 C   0  0  0  0  0  0
  -46.8370   65.3030   26.1570 O   0  0  0  0  0  0
  -40.4800   64.4120   28.2230 C   0  0  0  0  0  0
  -42.6610   63.0380   25.2580 O   0  5  0  0  0  0
  -40.9920   65.5010   27.4820 C   0  0  0  0  0  0
  -41.9440   64.9190   24.4600 O   0  0  0  0  0  0
  -42.7580   66.6540   31.8240 C   0  0  0  0  0  0
  -42.3660   66.1020   30.4710 C   0  0  0  0  0  0
  -43.2480   66.8470   29.4970 C   0  0  0  0  0  0
  -43.3980   66.0510   28.1730 C   0  0  0  0  0  0
  -44.6070   65.8230   27.6670 N   0  0  0  0  0  0
  -44.4460   65.1360   26.5460 C   0  0  0  0  0  0
  -45.6370   64.6760   25.6680 C   0  0  0  0  0  0
  -45.4410   65.1380   24.2150 C   0  0  0  0  0  0
  -45.8010   63.1380   25.7490 C   0  0  0  0  0  0
  -43.1360   64.9400   26.3590 C   0  0  0  0  0  0
  -42.5710   64.2840   25.3370 C   0  0  0  0  0  0
  -42.4610   65.5010   27.3760 N   0  0  0  0  0  0
  -41.2350   63.3860   28.8130 C   0  0  0  0  0  0
  -40.5980   62.3670   29.5340 C   0  0  0  0  0  0
  -39.2040   62.3440   29.6720 C   0  0  0  0  0  0
  -38.5690   61.3280   30.4050 C   0  0  0  0  0  0
  -38.9780   61.1340   31.7330 C   0  0  0  0  0  0
  -38.3950   60.1510   32.5300 C   0  0  0  0  0  0
  -37.3840   59.3490   32.0080 C   0  0  0  0  0  0
  -36.9590   59.5300   30.6910 C   0  0  0  0  0  0
  -37.5430   60.5100   29.8810 C   0  0  0  0  0  0
  -37.0930   60.6460   28.6320 C   0  0  0  0  0  0
  -37.7520   60.3670   27.5210 N   0  0  0  0  0  0
  -37.0020   60.6510   26.6350 N   0  3  0  0  0  0
  -35.8720   61.1150   27.1220 N   0  0  0  0  0  0
  -35.9080   61.1250   28.2970 N   0  0  0  0  0  0
  -37.3719   63.3710   29.1849 H   0  0  0  0  0  0
  -38.4878   65.1578   27.8975 H   0  0  0  0  0  0
  -46.9145   66.4000   26.1793 H   0  0  0  0  0  0
  -40.6969   66.4442   27.9650 H   0  0  0  0  0  0
  -40.5882   65.4708   26.4592 H   0  0  0  0  0  0
  -42.1603   66.1643   32.6069 H   0  0  0  0  0  0
  -43.8260   66.4609   32.0033 H   0  0  0  0  0  0
  -42.5727   67.7381   31.8454 H   0  0  0  0  0  0
  -41.2980   66.2951   30.2917 H   0  0  0  0  0  0
  -42.5512   65.0179   30.4496 H   0  0  0  0  0  0
  -44.2444   66.9904   29.9404 H   0  0  0  0  0  0
  -42.8015   67.8272   29.2738 H   0  0  0  0  0  0
  -45.3277   66.2319   24.1902 H   0  0  0  0  0  0
  -46.3165   64.8463   23.6163 H   0  0  0  0  0  0
  -44.5386   64.6664   23.7989 H   0  0  0  0  0  0
  -45.9391   62.8388   26.7985 H   0  0  0  0  0  0
  -44.9012   62.6515   25.3443 H   0  0  0  0  0  0
  -46.6792   62.8315   25.1617 H   0  0  0  0  0  0
  -42.3201   63.3819   28.7100 H   0  0  0  0  0  0
  -41.1961   61.5805   29.9943 H   0  0  0  0  0  0
  -39.7653   61.7631   32.1483 H   0  0  0  0  0  0
  -38.7292   60.0106   33.5580 H   0  0  0  0  0  0
  -36.9242   58.5794   32.6280 H   0  0  0  0  0  0
  -36.1641   58.9015   30.2894 H   0  0  0  0  0  0
  -37.2800   60.5203   25.6834 H   0  0  0  0  0  0
  1  2  2  0  0  0
  1 22  1  0  0  0
  1 34  1  0  0  0
  2  4  1  0  0  0
  2 35  1  0  0  0
  3 14  1  0  0  0
  3 36  1  0  0  0
  4  6  1  0  0  0
  4 20  2  0  0  0
  5 18  1  0  0  0
  6 19  1  0  0  0
  6 37  1  0  0  0
  6 38  1  0  0  0
  7 18  2  0  0  0
  8  9  1  0  0  0
  8 39  1  0  0  0
  8 40  1  0  0  0
  8 41  1  0  0  0
  9 10  1  0  0  0
  9 42  1  0  0  0
  9 43  1  0  0  0
 10 11  1  0  0  0
 10 44  1  0  0  0
 10 45  1  0  0  0
 11 12  2  0  0  0
 11 19  1  0  0  0
 12 13  1  0  0  0
 13 14  1  0  0  0
 13 17  2  0  0  0
 14 15  1  0  0  0
 14 16  1  0  0  0
 15 46  1  0  0  0
 15 47  1  0  0  0
 15 48  1  0  0  0
 16 49  1  0  0  0
 16 50  1  0  0  0
 16 51  1  0  0  0
 17 18  1  0  0  0
 17 19  1  0  0  0
 20 21  1  0  0  0
 20 52  1  0  0  0
 21 22  2  0  0  0
 21 53  1  0  0  0
 22 23  1  0  0  0
 23 24  2  0  0  0
 23 28  1  0  0  0
 24 25  1  0  0  0
 24 54  1  0  0  0
 25 26  2  0  0  0
 25 55  1  0  0  0
 26 27  1  0  0  0
 26 56  1  0  0  0
 27 28  2  0  0  0
 27 57  1  0  0  0
 28 29  1  0  0  0
 29 30  2  0  0  0
 29 33  1  0  0  0
 30 31  1  0  0  0
 31 32  1  0  0  0
 31 58  1  0  0  0
 32 33  2  0  0  0
M  CHG  2   5  -1  31   1
M  END
> <s_m_source_file>
../4zud_ligand.sdf

> <i_m_source_file_index>
1

> <s_epik_input>
W0NIM11bQ0gyXVtDSDJdYzFuYyhDKFtPSF0pKFtDSDNdKVtDSDNdKWMoQyg9TylbT0hdKW4xW0NIMl1jMltjSF1bY0hdYyhbY0hdW2NIXTIpLWMzW2NIXVtjSF1bY0hdW2NIXWMzLWM0bltuSF1ubjQ=

> <s_epik_cmdline>
J2VwaWtfYXBwJywgJy1pbWFlJywgJ2xpZ2FuZF9wcm8ubWFlJywgJy1vbWFlJywgJ2xpZ2FuZF9wcmVwLm1hZScsICctbXMnLCAnMScsICctcGgnLCAnNycsICctcGh0JywgJzAuNScsICctbnQn

> <r_epik_Ionization_Penalty>
 15.5260

> <r_epik_Ionization_Penalty_Charging>
  1.0615

> <r_epik_Ionization_Penalty_Neutral>
 14.4645

> <r_epik_State_Penalty>
  0.1826

> <r_epik_Charging_Adjusted_Penalty>
1.24408318878472

> <i_epik_Tot_Q>
0

> <i_epik_Tot_abs_Q>
2

> <s_epik_Chemistry_Notes>
This compound has an imine and may undergo hydrolysis.

$$$$
