4zum_ligand
                    3D
 Schrodinger Suite 2020-3.
 40 39  0  0  1  0            999 V2000
  -10.9610    0.4090  -28.1140 C   0  0  0  0  0  0
  -10.7140    1.3390  -26.9320 C   0  0  0  0  0  0
  -11.5800    2.5920  -27.0050 C   0  0  0  0  0  0
  -12.0470    4.7400  -25.7450 C   0  0  0  0  0  0
  -11.9790    5.5670  -27.0330 C   0  0  0  0  0  0
  -12.6560    6.9110  -26.7830 C   0  0  0  0  0  0
  -12.6940    7.7100  -28.0900 C   0  0  0  0  0  0
  -12.9810    9.1800  -27.7890 C   0  0  0  0  0  0
  -13.4420   10.0240  -28.9940 C   0  0  0  0  0  0
  -13.6520   11.4700  -28.5940 C   0  0  0  0  0  0
  -14.4840   11.5860  -27.5830 F   0  0  0  0  0  0
  -14.1470   12.1380  -29.6460 F   0  0  0  0  0  0
  -12.5270   12.0470  -28.2620 F   0  0  0  0  0  0
  -11.3340    3.4740  -25.8650 N   0  3  0  0  0  0
  -10.1590   -0.7930  -27.9400 N   0  3  0  0  0  0
  -12.4850    9.9720  -30.0320 O   0  0  0  0  0  0
  -14.6780    9.5370  -29.5360 O   0  0  0  0  0  0
  -12.0276    0.1430  -28.1546 H   0  0  0  0  0  0
  -10.6740    0.9170  -29.0465 H   0  0  0  0  0  0
  -10.9485    0.8118  -25.9955 H   0  0  0  0  0  0
   -9.6587    1.6492  -26.9238 H   0  0  0  0  0  0
  -11.3512    3.1425  -27.9295 H   0  0  0  0  0  0
  -12.6418    2.3046  -27.0027 H   0  0  0  0  0  0
  -11.5953    5.3095  -24.9194 H   0  0  0  0  0  0
  -13.0978    4.5190  -25.5062 H   0  0  0  0  0  0
  -10.9268    5.7235  -27.3131 H   0  0  0  0  0  0
  -12.4977    5.0304  -27.8411 H   0  0  0  0  0  0
  -13.6822    6.7435  -26.4239 H   0  0  0  0  0  0
  -12.0893    7.4717  -26.0251 H   0  0  0  0  0  0
  -11.7228    7.6258  -28.5996 H   0  0  0  0  0  0
  -13.4856    7.3106  -28.7411 H   0  0  0  0  0  0
  -13.7795    9.2509  -27.0358 H   0  0  0  0  0  0
  -12.0695    9.6601  -27.4034 H   0  0  0  0  0  0
  -11.5804    2.9452  -24.9324 H   0  0  0  0  0  0
  -10.2741    3.7679  -25.8508 H   0  0  0  0  0  0
  -10.3288   -1.4730  -28.7878 H   0  0  0  0  0  0
  -10.4478   -1.2942  -27.0044 H   0  0  0  0  0  0
   -9.0943   -0.5202  -27.8963 H   0  0  0  0  0  0
  -11.4521   10.3008  -29.8448 H   0  0  0  0  0  0
  -15.5749    9.4863  -28.9011 H   0  0  0  0  0  0
  1  2  1  0  0  0
  1 15  1  0  0  0
  1 18  1  0  0  0
  1 19  1  0  0  0
  2  3  1  0  0  0
  2 20  1  0  0  0
  2 21  1  0  0  0
  3 14  1  0  0  0
  3 22  1  0  0  0
  3 23  1  0  0  0
  4  5  1  0  0  0
  4 14  1  0  0  0
  4 24  1  0  0  0
  4 25  1  0  0  0
  5  6  1  0  0  0
  5 26  1  0  0  0
  5 27  1  0  0  0
  6  7  1  0  0  0
  6 28  1  0  0  0
  6 29  1  0  0  0
  7  8  1  0  0  0
  7 30  1  0  0  0
  7 31  1  0  0  0
  8  9  1  0  0  0
  8 32  1  0  0  0
  8 33  1  0  0  0
  9 10  1  0  0  0
  9 16  1  0  0  0
  9 17  1  0  0  0
 10 11  1  0  0  0
 10 12  1  0  0  0
 10 13  1  0  0  0
 14 34  1  0  0  0
 14 35  1  0  0  0
 15 36  1  0  0  0
 15 37  1  0  0  0
 15 38  1  0  0  0
 16 39  1  0  0  0
 17 40  1  0  0  0
M  CHG  2  14   1  15   1
M  END
> <s_m_source_file>
../4zum_ligand.sdf

> <i_m_source_file_index>
1

> <s_epik_input>
W05IMytdW0NIMl1bQ0gyXVtDSDJdW05IMitdW0NIMl1bQ0gyXVtDSDJdW0NIMl1bQ0gyXUMoQyhGKShGKUYpKFtPSF0pW09IXQ==

> <s_epik_cmdline>
J2VwaWtfYXBwJywgJy1pbWFlJywgJ2xpZ2FuZF9wcm8ubWFlJywgJy1vbWFlJywgJ2xpZ2FuZF9wcmVwLm1hZScsICctbXMnLCAnMScsICctcGgnLCAnNycsICctcGh0JywgJzAuNScsICctbnQn

> <r_lp_tautomer_probability>
1

> <r_epik_Ionization_Penalty>
  0.0046

> <r_epik_Ionization_Penalty_Charging>
  0.0041

> <r_epik_Ionization_Penalty_Neutral>
  0.0005

> <r_epik_State_Penalty>
 -0.0000

> <r_epik_Charging_Adjusted_Penalty>
0.00405824412664782

> <i_epik_Tot_Q>
2

> <i_epik_Tot_abs_Q>
2

$$$$
