4zun_ligand
                    3D
 Schrodinger Suite 2020-3.
 33 32  0  0  1  0            999 V2000
  -10.4520    0.8360  -28.1850 C   0  0  0  0  0  0
  -10.4220    1.7670  -26.9840 C   0  0  0  0  0  0
  -11.3550    2.9580  -27.1930 C   0  0  0  0  0  0
  -11.9280    5.1390  -26.0180 C   0  0  0  0  0  0
  -11.7420    5.8950  -27.3380 C   0  0  0  0  0  0
  -12.4210    7.2630  -27.2010 C   0  0  0  0  0  0
  -12.1910    8.2180  -28.3750 C   0  0  0  0  0  0
  -13.1730    9.3940  -28.2970 C   0  0  0  0  0  0
   -9.6430   -0.3210  -27.8450 N   0  3  0  0  0  0
  -11.4250    3.7720  -25.9940 N   0  3  0  0  0  0
  -13.1460   10.4890  -29.7400 S   0  0  0  0  0  0
  -11.4903    0.5373  -28.3915 H   0  0  0  0  0  0
  -10.0385    1.3554  -29.0620 H   0  0  0  0  0  0
  -10.7449    1.2186  -26.0868 H   0  0  0  0  0  0
   -9.3985    2.1418  -26.8361 H   0  0  0  0  0  0
  -10.9795    3.5770  -28.0212 H   0  0  0  0  0  0
  -12.3647    2.5948  -27.4352 H   0  0  0  0  0  0
  -11.4036    5.6736  -25.2123 H   0  0  0  0  0  0
  -12.9999    5.0763  -25.7793 H   0  0  0  0  0  0
  -10.6681    6.0226  -27.5393 H   0  0  0  0  0  0
  -12.2029    5.3226  -28.1565 H   0  0  0  0  0  0
  -13.5089    7.1253  -27.1145 H   0  0  0  0  0  0
  -12.0432    7.7715  -26.3017 H   0  0  0  0  0  0
  -11.1616    8.6038  -28.3375 H   0  0  0  0  0  0
  -12.3465    7.6796  -29.3215 H   0  0  0  0  0  0
  -14.1994    9.0091  -28.2057 H   0  0  0  0  0  0
  -12.9343   10.0135  -27.4199 H   0  0  0  0  0  0
   -9.6366   -1.0250  -28.6902 H   0  0  0  0  0  0
  -10.0657   -0.8162  -26.9584 H   0  0  0  0  0  0
   -8.6139    0.0019  -27.6289 H   0  0  0  0  0  0
  -12.0780    3.2828  -25.2563 H   0  0  0  0  0  0
  -10.4165    3.8886  -25.5706 H   0  0  0  0  0  0
  -13.8139   11.3621  -29.7805 H   0  0  0  0  0  0
  1  2  1  0  0  0
  1  9  1  0  0  0
  1 12  1  0  0  0
  1 13  1  0  0  0
  2  3  1  0  0  0
  2 14  1  0  0  0
  2 15  1  0  0  0
  3 10  1  0  0  0
  3 16  1  0  0  0
  3 17  1  0  0  0
  4  5  1  0  0  0
  4 10  1  0  0  0
  4 18  1  0  0  0
  4 19  1  0  0  0
  5  6  1  0  0  0
  5 20  1  0  0  0
  5 21  1  0  0  0
  6  7  1  0  0  0
  6 22  1  0  0  0
  6 23  1  0  0  0
  7  8  1  0  0  0
  7 24  1  0  0  0
  7 25  1  0  0  0
  8 11  1  0  0  0
  8 26  1  0  0  0
  8 27  1  0  0  0
  9 28  1  0  0  0
  9 29  1  0  0  0
  9 30  1  0  0  0
 10 31  1  0  0  0
 10 32  1  0  0  0
 11 33  1  0  0  0
M  CHG  2   9   1  10   1
M  END
> <s_m_source_file>
../4zun_ligand.sdf

> <i_m_source_file_index>
1

> <s_epik_input>
W05IMytdW0NIMl1bQ0gyXVtDSDJdW05IMitdW0NIMl1bQ0gyXVtDSDJdW0NIMl1bQ0gyXVtTSF0=

> <s_epik_cmdline>
J2VwaWtfYXBwJywgJy1pbWFlJywgJ2xpZ2FuZF9wcm8ubWFlJywgJy1vbWFlJywgJ2xpZ2FuZF9wcmVwLm1hZScsICctbXMnLCAnMScsICctcGgnLCAnNycsICctcGh0JywgJzAuNScsICctbnQn

> <r_lp_tautomer_probability>
1

> <r_epik_Ionization_Penalty>
  0.0052

> <r_epik_Ionization_Penalty_Charging>
  0.0040

> <r_epik_Ionization_Penalty_Neutral>
  0.0011

> <r_epik_State_Penalty>
 -0.0000

> <r_epik_Charging_Adjusted_Penalty>
0.00403136643835773

> <i_epik_Tot_Q>
2

> <i_epik_Tot_abs_Q>
2

$$$$
