4zuo_ligand
                    3D
 Schrodinger Suite 2020-3.
 37 36  0  0  1  0            999 V2000
   -9.5530    0.8950  -27.5740 C   0  0  0  0  0  0
   -9.2880    2.2940  -28.1200 C   0  0  0  0  0  0
   -9.7470    3.3450  -27.1180 C   0  0  0  0  0  0
  -11.9210    4.1580  -26.0970 C   0  0  0  0  0  0
  -11.2610    5.5170  -26.1970 C   0  0  0  0  0  0
  -12.2640    6.6670  -26.1660 C   0  0  0  0  0  0
  -12.2560    7.3820  -27.5120 C   0  0  0  0  0  0
  -13.0240    8.6850  -27.3790 C   0  0  0  0  0  0
  -12.8550    9.5770  -28.5880 C   0  0  0  0  0  0
   -9.4260   -0.1000  -28.6240 N   0  3  0  0  0  0
  -11.1290    3.1200  -26.7390 N   0  3  0  0  0  0
  -13.9780   10.1830  -28.9250 N   0  0  0  0  0  0
  -11.7710    9.7200  -29.1780 O   0  0  0  0  0  0
  -14.0390   11.0930  -29.9660 O   0  0  0  0  0  0
   -8.8266    0.6677  -26.7799 H   0  0  0  0  0  0
  -10.5722    0.8489  -27.1627 H   0  0  0  0  0  0
   -8.2105    2.4179  -28.3037 H   0  0  0  0  0  0
   -9.8387    2.4302  -29.0625 H   0  0  0  0  0  0
   -9.1175    3.2926  -26.2174 H   0  0  0  0  0  0
   -9.6594    4.3445  -27.5689 H   0  0  0  0  0  0
  -12.0471    3.8887  -25.0380 H   0  0  0  0  0  0
  -12.9055    4.1916  -26.5865 H   0  0  0  0  0  0
  -10.5698    5.6520  -25.3520 H   0  0  0  0  0  0
  -10.7023    5.5847  -27.1421 H   0  0  0  0  0  0
  -13.2705    6.2704  -25.9667 H   0  0  0  0  0  0
  -11.9852    7.3754  -25.3720 H   0  0  0  0  0  0
  -11.2179    7.5902  -27.8104 H   0  0  0  0  0  0
  -12.7341    6.7434  -28.2693 H   0  0  0  0  0  0
  -14.0962    8.4684  -27.2629 H   0  0  0  0  0  0
  -12.6634    9.2348  -26.4971 H   0  0  0  0  0  0
   -9.6211   -1.0993  -28.2077 H   0  0  0  0  0  0
   -8.4075   -0.0678  -29.0384 H   0  0  0  0  0  0
  -10.1532    0.1134  -29.4213 H   0  0  0  0  0  0
  -11.7190    2.8728  -27.6339 H   0  0  0  0  0  0
  -11.1819    2.2864  -26.0232 H   0  0  0  0  0  0
  -14.8843    9.9448  -28.3489 H   0  0  0  0  0  0
  -14.9938   11.5780  -30.2173 H   0  0  0  0  0  0
  1  2  1  0  0  0
  1 10  1  0  0  0
  1 15  1  0  0  0
  1 16  1  0  0  0
  2  3  1  0  0  0
  2 17  1  0  0  0
  2 18  1  0  0  0
  3 11  1  0  0  0
  3 19  1  0  0  0
  3 20  1  0  0  0
  4  5  1  0  0  0
  4 11  1  0  0  0
  4 21  1  0  0  0
  4 22  1  0  0  0
  5  6  1  0  0  0
  5 23  1  0  0  0
  5 24  1  0  0  0
  6  7  1  0  0  0
  6 25  1  0  0  0
  6 26  1  0  0  0
  7  8  1  0  0  0
  7 27  1  0  0  0
  7 28  1  0  0  0
  8  9  1  0  0  0
  8 29  1  0  0  0
  8 30  1  0  0  0
  9 12  1  0  0  0
  9 13  2  0  0  0
 10 31  1  0  0  0
 10 32  1  0  0  0
 10 33  1  0  0  0
 11 34  1  0  0  0
 11 35  1  0  0  0
 12 14  1  0  0  0
 12 36  1  0  0  0
 14 37  1  0  0  0
M  CHG  2  10   1  11   1
M  END
> <s_m_source_file>
../4zuo_ligand.sdf

> <i_m_source_file_index>
1

> <s_epik_input>
W05IMytdW0NIMl1bQ0gyXVtDSDJdW05IMitdW0NIMl1bQ0gyXVtDSDJdW0NIMl1bQ0gyXUMoPU8pW05IXVtPSF0=

> <s_epik_cmdline>
J2VwaWtfYXBwJywgJy1pbWFlJywgJ2xpZ2FuZF9wcm8ubWFlJywgJy1vbWFlJywgJ2xpZ2FuZF9wcmVwLm1hZScsICctbXMnLCAnMScsICctcGgnLCAnNycsICctcGh0JywgJzAuNScsICctbnQn

> <r_lp_tautomer_probability>
1

> <r_epik_Ionization_Penalty>
  0.0079

> <r_epik_Ionization_Penalty_Charging>
  0.0040

> <r_epik_Ionization_Penalty_Neutral>
  0.0039

> <r_epik_State_Penalty>
 -0.0000

> <r_epik_Charging_Adjusted_Penalty>
0.00399992587758046

> <i_epik_Tot_Q>
2

> <i_epik_Tot_abs_Q>
2

> <s_epik_Chemistry_Notes>
This compound has a N-S or N-O group and may undergo hydrolysis at high or low pH.

$$$$
