4zur_ligand
                    3D
 Schrodinger Suite 2020-3.
 28 27  0  0  1  0            999 V2000
   -0.9390  -10.7290  -31.2320 O   0  0  0  0  0  0
   -1.3070   -9.8640  -30.2300 N   0  0  0  0  0  0
   -2.4420   -9.2660  -30.2040 C   0  0  0  0  0  0
   -3.2910   -9.4390  -31.0240 O   0  0  0  0  0  0
   -2.6710   -8.4010  -28.9740 C   0  0  0  0  0  0
   -3.2030   -7.0330  -29.3100 C   0  0  0  0  0  0
   -3.5550   -6.3070  -28.0210 C   0  0  0  0  0  0
   -4.0160   -4.9030  -28.3490 C   0  0  0  0  0  0
   -4.4780   -4.1530  -27.1090 C   0  0  0  0  0  0
   -4.8910   -2.7420  -27.5020 C   0  0  0  0  0  0
   -5.2300   -2.0000  -26.2960 N   0  3  0  0  0  0
    0.0475  -11.2149  -31.2044 H   0  0  0  0  0  0
   -0.6151   -9.6573  -29.4002 H   0  0  0  0  0  0
   -3.4004   -8.8907  -28.3121 H   0  0  0  0  0  0
   -1.7202   -8.2679  -28.4371 H   0  0  0  0  0  0
   -2.4359   -6.4655  -29.8572 H   0  0  0  0  0  0
   -4.1017   -7.1327  -29.9363 H   0  0  0  0  0  0
   -4.3609   -6.8483  -27.5037 H   0  0  0  0  0  0
   -2.6682   -6.2617  -27.3718 H   0  0  0  0  0  0
   -3.1860   -4.3410  -28.8019 H   0  0  0  0  0  0
   -4.8569   -4.9491  -29.0567 H   0  0  0  0  0  0
   -5.3353   -4.6773  -26.6615 H   0  0  0  0  0  0
   -3.6552   -4.1072  -26.3803 H   0  0  0  0  0  0
   -4.0575   -2.2475  -28.0223 H   0  0  0  0  0  0
   -5.7642   -2.7880  -28.1694 H   0  0  0  0  0  0
   -5.5306   -0.9772  -26.5671 H   0  0  0  0  0  0
   -4.3544   -1.9609  -25.6313 H   0  0  0  0  0  0
   -6.0611   -2.5014  -25.7785 H   0  0  0  0  0  0
  1  2  1  0  0  0
  1 12  1  0  0  0
  2  3  1  0  0  0
  2 13  1  0  0  0
  3  4  2  0  0  0
  3  5  1  0  0  0
  5  6  1  0  0  0
  5 14  1  0  0  0
  5 15  1  0  0  0
  6  7  1  0  0  0
  6 16  1  0  0  0
  6 17  1  0  0  0
  7  8  1  0  0  0
  7 18  1  0  0  0
  7 19  1  0  0  0
  8  9  1  0  0  0
  8 20  1  0  0  0
  8 21  1  0  0  0
  9 10  1  0  0  0
  9 22  1  0  0  0
  9 23  1  0  0  0
 10 11  1  0  0  0
 10 24  1  0  0  0
 10 25  1  0  0  0
 11 26  1  0  0  0
 11 27  1  0  0  0
 11 28  1  0  0  0
M  CHG  1  11   1
M  END
> <s_m_source_file>
../4zur_ligand.sdf

> <i_m_source_file_index>
1

> <s_epik_input>
W09IXVtOSF1DKD1PKVtDSDJdW0NIMl1bQ0gyXVtDSDJdW0NIMl1bQ0gyXVtOSDMrXQ==

> <s_epik_cmdline>
J2VwaWtfYXBwJywgJy1pbWFlJywgJ2xpZ2FuZF9wcm8ubWFlJywgJy1vbWFlJywgJ2xpZ2FuZF9wcmVwLm1hZScsICctbXMnLCAnMScsICctcGgnLCAnNycsICctcGh0JywgJzAuNScsICctbnQn

> <r_lp_tautomer_probability>
1

> <r_epik_Ionization_Penalty>
  0.0041

> <r_epik_Ionization_Penalty_Charging>
  0.0004

> <r_epik_Ionization_Penalty_Neutral>
  0.0037

> <r_epik_State_Penalty>
 -0.0000

> <r_epik_Charging_Adjusted_Penalty>
0.000372443349762935

> <i_epik_Tot_Q>
1

> <i_epik_Tot_abs_Q>
1

> <s_epik_Chemistry_Notes>
This compound has a N-S or N-O group and may undergo hydrolysis at high or low pH.

$$$$
