4zvi_ligand
                    3D
 Schrodinger Suite 2020-3.
 32 33  0  0  1  0            999 V2000
  -13.3290   17.8000   21.6540 C   0  0  0  0  0  0
  -12.4110   20.0350   22.2190 C   0  0  0  0  0  0
  -12.7270   20.1500   23.5820 C   0  0  0  0  0  0
  -12.1320   21.1290   24.3600 C   0  0  0  0  0  0
  -11.2210   22.0350   23.7890 C   0  0  0  0  0  0
  -10.9190   21.9320   22.4230 C   0  0  0  0  0  0
  -13.9540   16.9740   20.6100 C   0  0  0  0  0  0
  -13.8510   17.1250   19.2450 C   0  0  0  0  0  0
  -14.6200   16.1280   18.6440 C   0  0  3  0  0  0
  -15.1940   15.3890   19.6370 C   0  0  0  0  0  0
  -13.1540   17.2970   22.7490 O   0  0  0  0  0  0
  -12.9940   19.0890   21.3630 N   0  0  0  0  0  0
  -11.5150   20.9510   21.6530 C   0  0  0  0  0  0
  -10.5900   23.0820   24.6190 C   0  0  0  0  0  0
  -10.1510   22.7860   25.7110 O   0  0  0  0  0  0
  -10.5040   24.3570   24.1750 N   0  0  0  0  0  0
   -9.8860   25.4120   24.9980 C   0  0  0  0  0  0
   -9.5830   26.6400   24.1730 C   0  0  0  0  0  0
   -8.9150   27.5270   24.6500 O   0  0  0  0  0  0
  -10.0470   26.7590   22.9170 O   0  5  0  0  0  0
  -14.7760   15.9330   16.7680 Br  0  0  0  0  0  0
  -16.3600   13.8970   19.4830 Br  0  0  0  0  0  0
  -14.7890   15.9020   20.8260 N   0  0  0  0  0  0
  -13.4455   19.4641   24.0309 H   0  0  0  0  0  0
  -12.3713   21.1976   25.4212 H   0  0  0  0  0  0
  -10.2131   22.6268   21.9680 H   0  0  0  0  0  0
  -13.2351   17.9344   18.8261 H   0  0  0  0  0  0
  -13.1783   19.4912   20.3559 H   0  0  0  0  0  0
  -11.2844   20.8892   20.5895 H   0  0  0  0  0  0
  -10.9057   24.6000   23.1802 H   0  0  0  0  0  0
  -10.5736   25.6946   25.8088 H   0  0  0  0  0  0
   -8.9456   25.0375   25.4286 H   0  0  0  0  0  0
  1  7  1  0  0  0
  1 11  2  0  0  0
  1 12  1  0  0  0
  2  3  2  0  0  0
  2 12  1  0  0  0
  2 13  1  0  0  0
  3  4  1  0  0  0
  3 24  1  0  0  0
  4  5  2  0  0  0
  4 25  1  0  0  0
  5  6  1  0  0  0
  5 14  1  0  0  0
  6 13  2  0  0  0
  6 26  1  0  0  0
  7  8  2  0  0  0
  7 23  1  0  0  0
  8  9  1  0  0  0
  8 27  1  0  0  0
  9 10  1  0  0  0
  9 21  1  0  0  0
 10 22  1  0  0  0
 10 23  2  0  0  0
 12 28  1  0  0  0
 13 29  1  0  0  0
 14 15  2  0  0  0
 14 16  1  0  0  0
 16 17  1  0  0  0
 16 30  1  0  0  0
 17 18  1  0  0  0
 17 31  1  0  0  0
 17 32  1  0  0  0
 18 19  2  0  0  0
 18 20  1  0  0  0
M  CHG  1  20  -1
M  END
> <s_m_source_file>
../4zvi_ligand.sdf

> <i_m_source_file_index>
1

> <s_epik_input>
QnJDKD1OMSlbQ0hdKEJyKVtDSF09QzFDKD1PKVtOSF1jMltjSF1bY0hdYyhbY0hdW2NIXTIpQyg9TylbTkhdW0NIMl1DKD1PKVtPSF0=

> <s_epik_cmdline>
J2VwaWtfYXBwJywgJy1pbWFlJywgJ2xpZ2FuZF9wcm8ubWFlJywgJy1vbWFlJywgJ2xpZ2FuZF9wcmVwLm1hZScsICctbXMnLCAnMScsICctcGgnLCAnNycsICctcGh0JywgJzAuNScsICctbnQn

> <r_lp_tautomer_probability>
1

> <r_epik_Ionization_Penalty>
  0.0009

> <r_epik_Ionization_Penalty_Charging>
  0.0003

> <r_epik_Ionization_Penalty_Neutral>
  0.0006

> <r_epik_State_Penalty>
 -0.0000

> <r_epik_Charging_Adjusted_Penalty>
0.000299894157892998

> <i_epik_Tot_Q>
-1

> <i_epik_Tot_abs_Q>
1

> <s_epik_Chemistry_Notes>
This compound has an imine and may undergo hydrolysis.

$$$$
