4zwy_ligand
                    3D
 Schrodinger Suite 2020-3.
 59 59  0  0  1  0            999 V2000
   -0.8200    8.4150   12.3860 C   0  0  1  0  0  0
   -0.1180    9.7120   12.5470 C   0  0  1  0  0  0
    0.6690    9.8930   11.3420 C   0  0  1  0  0  0
    1.7710    8.9150   11.1380 C   0  0  2  0  0  0
    1.9030    6.4290   10.9680 C   0  0  0  0  0  0
   -1.1590   10.7270   12.5480 O   0  0  0  0  0  0
   -0.0850   12.2220   14.4010 C   0  0  0  0  0  0
   -1.2610   11.6910   13.5510 C   0  0  0  0  0  0
   -2.3340   12.1370   13.6710 O   0  0  0  0  0  0
   -0.2330    9.8230   10.1540 O   0  0  0  0  0  0
    2.2200    8.8280    9.7660 O   0  0  0  0  0  0
    1.4590    7.5030   11.7110 C   0  0  2  0  0  0
    2.8340    6.3100   11.9850 O   0  0  0  0  0  0
    3.8530    5.3800   11.8680 C   0  0  0  0  0  0
    3.9290    4.6480   10.9750 O   0  0  0  0  0  0
    4.8710    5.4220   13.0020 C   0  0  0  0  0  0
    0.0400    7.3020   12.2040 O   0  0  0  0  0  0
   -1.6180    7.9930   13.9240 S   0  0  0  0  0  0
   -0.6150    8.3780   15.0710 O   0  0  0  0  0  0
   -2.8860    8.9790   13.9790 O   0  0  0  0  0  0
   -2.1240    6.3780   13.9770 N   0  0  3  0  0  0
   -3.1360    6.1830   12.9660 C   0  0  0  0  0  0
   -4.5080    5.9180   13.5730 C   0  0  0  0  0  0
   -4.5310    4.8060   14.6520 C   0  0  0  0  0  0
   -5.9720    4.5640   15.1590 C   0  0  0  0  0  0
   -6.0520    3.6600   16.4080 C   0  0  0  0  0  0
   -5.7060    2.3980   15.9420 O   0  0  0  0  0  0
   -6.0450    1.1000   16.8390 S   0  0  0  0  0  0
   -7.3690    0.9940   16.6120 O   0  0  0  0  0  0
   -5.2560    1.3870   18.1170 O   0  0  0  0  0  0
   -5.3420   -0.2780   16.2830 N   0  0  0  0  0  0
   -1.3100    8.5676   11.4131 H   0  0  0  0  0  0
    0.5119    9.7785   13.4464 H   0  0  0  0  0  0
    1.1387   10.8764   11.4916 H   0  0  0  0  0  0
    2.6218    9.3743   11.6626 H   0  0  0  0  0  0
    1.0920    5.6927   10.8670 H   0  0  0  0  0  0
    2.2101    6.7753    9.9701 H   0  0  0  0  0  0
    0.8328   11.6752   14.1392 H   0  0  0  0  0  0
   -0.3080   12.0746   15.4680 H   0  0  0  0  0  0
    0.0573   13.2942   14.2008 H   0  0  0  0  0  0
   -1.1209   10.4699   10.0987 H   0  0  0  0  0  0
    2.4822    9.7427    9.2141 H   0  0  0  0  0  0
    2.1434    7.3616   12.5605 H   0  0  0  0  0  0
    4.5812    6.1975   13.7263 H   0  0  0  0  0  0
    5.8654    5.6550   12.5936 H   0  0  0  0  0  0
    4.9009    4.4438   13.5043 H   0  0  0  0  0  0
   -1.9319    5.5916   14.7218 H   0  0  0  0  0  0
   -3.2067    7.0843   12.3394 H   0  0  0  0  0  0
   -2.8663    5.3206   12.3387 H   0  0  0  0  0  0
   -4.8804    6.8355   14.0521 H   0  0  0  0  0  0
   -5.2059    5.6088   12.7809 H   0  0  0  0  0  0
   -4.1440    3.8702   14.2224 H   0  0  0  0  0  0
   -3.9014    5.1070   15.5023 H   0  0  0  0  0  0
   -6.4341    5.5265   15.4236 H   0  0  0  0  0  0
   -6.5625    4.0790   14.3677 H   0  0  0  0  0  0
   -5.3477    4.0247   17.1703 H   0  0  0  0  0  0
   -7.0746    3.6833   16.8126 H   0  0  0  0  0  0
   -5.6140   -1.1186   16.9383 H   0  0  0  0  0  0
   -4.2488   -0.1557   16.2781 H   0  0  0  0  0  0
  1  2  1  0  0  0
  1 17  1  0  0  0
  1 18  1  0  0  0
  1 32  1  0  0  0
  2  3  1  0  0  0
  2  6  1  0  0  0
  2 33  1  0  0  0
  3  4  1  0  0  0
  3 10  1  0  0  0
  3 34  1  0  0  0
  4 11  1  0  0  0
  4 12  1  0  0  0
  4 35  1  0  0  0
  5 12  1  0  0  0
  5 13  1  0  0  0
  5 36  1  0  0  0
  5 37  1  0  0  0
  6  8  1  0  0  0
  7  8  1  0  0  0
  7 38  1  0  0  0
  7 39  1  0  0  0
  7 40  1  0  0  0
  8  9  2  0  0  0
 10 41  1  0  0  0
 11 42  1  0  0  0
 12 17  1  0  0  0
 12 43  1  0  0  0
 13 14  1  0  0  0
 14 15  2  0  0  0
 14 16  1  0  0  0
 16 44  1  0  0  0
 16 45  1  0  0  0
 16 46  1  0  0  0
 18 19  2  0  0  0
 18 20  2  0  0  0
 18 21  1  0  0  0
 21 22  1  0  0  0
 21 47  1  0  0  0
 22 23  1  0  0  0
 22 48  1  0  0  0
 22 49  1  0  0  0
 23 24  1  0  0  0
 23 50  1  0  0  0
 23 51  1  0  0  0
 24 25  1  0  0  0
 24 52  1  0  0  0
 24 53  1  0  0  0
 25 26  1  0  0  0
 25 54  1  0  0  0
 25 55  1  0  0  0
 26 27  1  0  0  0
 26 56  1  0  0  0
 26 57  1  0  0  0
 27 28  1  0  0  0
 28 29  2  0  0  0
 28 30  2  0  0  0
 28 31  1  0  0  0
 31 58  1  0  0  0
 31 59  1  0  0  0
M  END
> <s_m_source_file>
../4zwy_ligand.sdf

> <i_m_source_file_index>
1

> <s_epik_input>
Tz1DKFtDSDNdKU9bQ0gyXVtDQEhdKE8xKVtDQEBIXShbT0hdKVtDQEBIXShbT0hdKVtDQEBIXShPQyg9TylbQ0gzXSlbQ0BASF0xUyg9TykoPU8pW05IXVtDSDJdW0NIMl1bQ0gyXVtDSDJdW0NIMl1PUyg9TykoPU8pW05IMl0=

> <s_epik_cmdline>
J2VwaWtfYXBwJywgJy1pbWFlJywgJ2xpZ2FuZF9wcm8ubWFlJywgJy1vbWFlJywgJ2xpZ2FuZF9wcmVwLm1hZScsICctbXMnLCAnMScsICctcGgnLCAnNycsICctcGh0JywgJzAuNScsICctbnQn

> <r_lp_tautomer_probability>
1

> <r_epik_Ionization_Penalty>
  0.0033

> <r_epik_Ionization_Penalty_Charging>
  0.0000

> <r_epik_Ionization_Penalty_Neutral>
  0.0033

> <r_epik_State_Penalty>
 -0.0000

> <r_epik_Charging_Adjusted_Penalty>
0

> <i_epik_Tot_Q>
0

> <i_epik_Tot_abs_Q>
0

> <s_epik_Chemistry_Notes>
This compound has an ester and may undergo hydrolysis at high or low pH.

$$$$
