4zwz_ligand
                    3D
 Schrodinger Suite 2020-3.
 50 51  0  0  1  0            999 V2000
   16.6850    7.4890   12.7700 C   0  0  1  0  0  0
   15.4220    7.7350   12.1170 C   0  0  1  0  0  0
   15.3760    8.9740   11.3430 C   0  0  1  0  0  0
   16.3350   10.0840   11.5940 C   0  0  1  0  0  0
   17.2010    9.9910   12.8680 C   0  0  2  0  0  0
   18.5650   10.2510   12.7080 C   0  0  0  0  0  0
   15.1660    6.5760   11.2740 O   0  0  0  0  0  0
   15.2300    8.7200    9.9030 O   0  0  0  0  0  0
   17.1030   10.3690   10.4400 O   0  0  0  0  0  0
   18.9980   10.8530   13.8680 O   0  0  0  0  0  0
   17.0810    8.6330   13.4950 O   0  0  0  0  0  0
   16.3090    6.4170   14.2100 S   0  0  0  0  0  0
   14.9870    6.9960   14.8610 O   0  0  0  0  0  0
   17.5820    6.5720   15.1880 O   0  0  0  0  0  0
   16.1040    5.0970   13.7890 N   0  0  2  0  0  0
   15.5180    4.3610   14.5610 C   0  0  0  0  0  0
   16.3010    2.9200   14.6250 C   0  0  2  0  0  0
   16.4730    2.5520   16.0990 O   0  0  0  0  0  0
   15.6000    1.3550   16.7360 S   0  0  0  0  0  0
   14.1100    1.6400   16.3570 O   0  0  0  0  0  0
   15.8550    1.4120   18.2680 O   0  0  0  0  0  0
   16.0680   -0.0330   15.9720 N   0  0  0  0  0  0
   17.3500    3.1320   14.2180 C   0  0  0  0  0  0
   17.2050    4.2970   13.2240 C   0  0  1  0  0  0
   16.9850    3.5920   11.8630 C   0  0  0  0  0  0
   17.7430    3.7830   11.0130 O   0  0  0  0  0  0
   15.9190    2.7210   11.6700 O   0  0  0  0  0  0
   16.0680    1.6340   10.7670 C   0  0  0  0  0  0
   17.3745    7.3126   11.9313 H   0  0  0  0  0  0
   14.6511    7.8682   12.8903 H   0  0  0  0  0  0
   14.4568    9.3838   11.7871 H   0  0  0  0  0  0
   15.6876   10.9644   11.7196 H   0  0  0  0  0  0
   16.8914   10.8140   13.5289 H   0  0  0  0  0  0
   19.1008    9.3057   12.5369 H   0  0  0  0  0  0
   18.7125   10.9174   11.8454 H   0  0  0  0  0  0
   15.1667    5.5668   11.7115 H   0  0  0  0  0  0
   14.5542    7.9271    9.5501 H   0  0  0  0  0  0
   16.6105   10.4628    9.4609 H   0  0  0  0  0  0
   20.0515   11.1517   13.9725 H   0  0  0  0  0  0
   15.5004    4.8181   15.5614 H   0  0  0  0  0  0
   14.4869    4.2074   14.2099 H   0  0  0  0  0  0
   16.0156    2.0826   13.9714 H   0  0  0  0  0  0
   15.4975   -0.8831   16.3742 H   0  0  0  0  0  0
   17.1422   -0.1998   16.1403 H   0  0  0  0  0  0
   18.0174    3.4046   15.0488 H   0  0  0  0  0  0
   17.7373    2.2329   13.7164 H   0  0  0  0  0  0
   18.0124    5.0316   13.0881 H   0  0  0  0  0  0
   15.1351    1.0520   10.7367 H   0  0  0  0  0  0
   16.8924    0.9882   11.1035 H   0  0  0  0  0  0
   16.2918    2.0205    9.7617 H   0  0  0  0  0  0
  1  2  1  0  0  0
  1 11  1  0  0  0
  1 12  1  0  0  0
  1 29  1  0  0  0
  2  3  1  0  0  0
  2  7  1  0  0  0
  2 30  1  0  0  0
  3  4  1  0  0  0
  3  8  1  0  0  0
  3 31  1  0  0  0
  4  5  1  0  0  0
  4  9  1  0  0  0
  4 32  1  0  0  0
  5  6  1  0  0  0
  5 11  1  0  0  0
  5 33  1  0  0  0
  6 10  1  0  0  0
  6 34  1  0  0  0
  6 35  1  0  0  0
  7 36  1  0  0  0
  8 37  1  0  0  0
  9 38  1  0  0  0
 10 39  1  0  0  0
 12 13  2  0  0  0
 12 14  2  0  0  0
 12 15  1  0  0  0
 15 16  1  0  0  0
 15 24  1  0  0  0
 16 17  1  0  0  0
 16 40  1  0  0  0
 16 41  1  0  0  0
 17 18  1  0  0  0
 17 23  1  0  0  0
 17 42  1  0  0  0
 18 19  1  0  0  0
 19 20  2  0  0  0
 19 21  2  0  0  0
 19 22  1  0  0  0
 22 43  1  0  0  0
 22 44  1  0  0  0
 23 24  1  0  0  0
 23 45  1  0  0  0
 23 46  1  0  0  0
 24 25  1  0  0  0
 24 47  1  0  0  0
 25 26  2  0  0  0
 25 27  1  0  0  0
 27 28  1  0  0  0
 28 48  1  0  0  0
 28 49  1  0  0  0
 28 50  1  0  0  0
M  END
> <s_m_source_file>
../4zwz_ligand.sdf

> <i_m_source_file_index>
1

> <s_epik_input>
W09IXVtDSDJdW0NASF0oTzEpW0NAQEhdKFtPSF0pW0NAQEhdKFtPSF0pW0NAQEhdKFtPSF0pW0NAQEhdMVMoPU8pKD1PKU4yW0NIMl1bQ0BIXShPUyg9TykoPU8pW05IMl0pW0NIMl1bQ0BIXTJDKD1PKU9bQ0gzXQ==

> <s_epik_cmdline>
J2VwaWtfYXBwJywgJy1pbWFlJywgJ2xpZ2FuZF9wcm8ubWFlJywgJy1vbWFlJywgJ2xpZ2FuZF9wcmVwLm1hZScsICctbXMnLCAnMScsICctcGgnLCAnNycsICctcGh0JywgJzAuNScsICctbnQn

> <r_epik_Ionization_Penalty>
  0.0113

> <r_epik_Ionization_Penalty_Charging>
  0.0000

> <r_epik_Ionization_Penalty_Neutral>
  0.0113

> <r_epik_State_Penalty>
  0.0087

> <r_epik_Charging_Adjusted_Penalty>
0.00867749329278352

> <i_epik_Tot_Q>
0

> <i_epik_Tot_abs_Q>
0

> <s_epik_Chemistry_Notes>
This compound has an ester and may undergo hydrolysis at high or low pH.

$$$$
