4zx0_ligand
                    3D
 Schrodinger Suite 2020-3.
 53 54  0  0  1  0            999 V2000
   -2.1120    5.2750   11.9850 C   0  0  1  0  0  0
   -0.7750    5.8950   11.9330 C   0  0  1  0  0  0
    0.1990    5.1520   11.0810 C   0  0  1  0  0  0
   -0.0080    3.7460   10.6720 C   0  0  1  0  0  0
   -1.1050    3.0430   11.4630 C   0  0  0  0  0  0
   -1.3690    1.7160   11.1600 C   0  0  0  0  0  0
   -0.8440    7.3450   11.6640 O   0  0  0  0  0  0
    1.0560    5.8550   10.1590 O   0  0  0  0  0  0
    0.1590    3.4160    9.3270 O   0  0  0  0  0  0
   -2.6110    1.3990   11.7020 O   0  0  0  0  0  0
   -3.3830    0.4860   11.0030 C   0  0  0  0  0  0
   -3.2210    0.2870    9.8670 O   0  0  0  0  0  0
   -4.4310   -0.2420   11.8440 C   0  0  0  0  0  0
   -2.1550    3.8720   12.0900 O   0  0  0  0  0  0
   -2.8810    5.7780   13.5760 S   0  0  0  0  0  0
   -1.8170    5.8150   14.6920 O   0  0  0  0  0  0
   -3.4730    7.1430   13.1820 O   0  0  0  0  0  0
   -3.9370    4.9210   13.9680 N   0  0  2  0  0  0
   -3.7270    3.9060   14.5620 C   0  0  0  0  0  0
   -5.1730    3.1400   14.5860 C   0  0  2  0  0  0
   -4.9830    1.7090   15.0960 O   0  0  0  0  0  0
   -5.6870    1.0490   16.4810 S   0  0  0  0  0  0
   -4.7970    1.5760   17.5790 O   0  0  0  0  0  0
   -7.1810    1.3700   16.6650 O   0  0  0  0  0  0
   -5.2550   -0.4960   16.4730 N   0  0  0  0  0  0
   -5.5250    3.2560   13.4790 C   0  0  0  0  0  0
   -5.0470    4.6570   13.0340 C   0  0  1  0  0  0
   -6.1490    5.6680   13.1830 C   0  0  0  0  0  0
   -6.6220    5.8290   14.1980 O   0  0  0  0  0  0
   -6.4760    6.3960   12.0660 O   0  0  0  0  0  0
   -7.3360    7.4680   12.1820 C   0  0  0  0  0  0
   -2.4423    5.4512   10.9507 H   0  0  0  0  0  0
   -0.3640    5.8122   12.9500 H   0  0  0  0  0  0
    0.8138    5.0761   11.9900 H   0  0  0  0  0  0
    0.9544    3.2495   10.8650 H   0  0  0  0  0  0
   -0.6393    1.1276   10.5844 H   0  0  0  0  0  0
   -1.5330    7.9793   12.2411 H   0  0  0  0  0  0
    1.3010    6.9131   10.3334 H   0  0  0  0  0  0
    0.9432    3.9084    8.7331 H   0  0  0  0  0  0
   -4.3860    0.1217   12.8812 H   0  0  0  0  0  0
   -4.2295   -1.3232   11.8255 H   0  0  0  0  0  0
   -5.4318   -0.0484   11.4307 H   0  0  0  0  0  0
   -2.9616    3.3217   14.0303 H   0  0  0  0  0  0
   -3.3702    4.1414   15.5755 H   0  0  0  0  0  0
   -6.0972    3.5351   15.0330 H   0  0  0  0  0  0
   -5.6795   -1.0000   17.3538 H   0  0  0  0  0  0
   -4.1579   -0.5701   16.5014 H   0  0  0  0  0  0
   -5.0709    2.4643   12.8650 H   0  0  0  0  0  0
   -6.6209    3.1732   13.4321 H   0  0  0  0  0  0
   -4.7246    4.7434   11.9859 H   0  0  0  0  0  0
   -7.4827    7.9289   11.1941 H   0  0  0  0  0  0
   -6.9070    8.2092   12.8724 H   0  0  0  0  0  0
   -8.3042    7.1208   12.5721 H   0  0  0  0  0  0
  1  2  1  0  0  0
  1 14  1  0  0  0
  1 15  1  0  0  0
  1 32  1  0  0  0
  2  3  1  0  0  0
  2  7  1  0  0  0
  2 33  1  0  0  0
  3  4  1  0  0  0
  3  8  1  0  0  0
  3 34  1  0  0  0
  4  5  1  0  0  0
  4  9  1  0  0  0
  4 35  1  0  0  0
  5  6  2  0  0  0
  5 14  1  0  0  0
  6 10  1  0  0  0
  6 36  1  0  0  0
  7 37  1  0  0  0
  8 38  1  0  0  0
  9 39  1  0  0  0
 10 11  1  0  0  0
 11 12  2  0  0  0
 11 13  1  0  0  0
 13 40  1  0  0  0
 13 41  1  0  0  0
 13 42  1  0  0  0
 15 16  2  0  0  0
 15 17  2  0  0  0
 15 18  1  0  0  0
 18 19  1  0  0  0
 18 27  1  0  0  0
 19 20  1  0  0  0
 19 43  1  0  0  0
 19 44  1  0  0  0
 20 21  1  0  0  0
 20 26  1  0  0  0
 20 45  1  0  0  0
 21 22  1  0  0  0
 22 23  2  0  0  0
 22 24  2  0  0  0
 22 25  1  0  0  0
 25 46  1  0  0  0
 25 47  1  0  0  0
 26 27  1  0  0  0
 26 48  1  0  0  0
 26 49  1  0  0  0
 27 28  1  0  0  0
 27 50  1  0  0  0
 28 29  2  0  0  0
 28 30  1  0  0  0
 30 31  1  0  0  0
 31 51  1  0  0  0
 31 52  1  0  0  0
 31 53  1  0  0  0
M  END
> <s_m_source_file>
../4zx0_ligand.sdf

> <i_m_source_file_index>
1

> <s_epik_input>
Tz1DKFtDSDNdKU9cW0NIXT1DKE8xKVxbQ0BASF0oW09IXSlbQ0BASF0oW09IXSlbQ0BASF0oW09IXSlbQ0BASF0xUyg9TykoPU8pTjJbQ0gyXVtDQEhdKE9TKD1PKSg9TylbTkgyXSlbQ0gyXVtDQEhdMkMoPU8pT1tDSDNd

> <s_epik_cmdline>
J2VwaWtfYXBwJywgJy1pbWFlJywgJ2xpZ2FuZF9wcm8ubWFlJywgJy1vbWFlJywgJ2xpZ2FuZF9wcmVwLm1hZScsICctbXMnLCAnMScsICctcGgnLCAnNycsICctcGh0JywgJzAuNScsICctbnQn

> <r_lp_tautomer_probability>
1

> <r_epik_Ionization_Penalty>
  0.0545

> <r_epik_Ionization_Penalty_Charging>
  0.0000

> <r_epik_Ionization_Penalty_Neutral>
  0.0545

> <r_epik_State_Penalty>
 -0.0000

> <r_epik_Charging_Adjusted_Penalty>
0

> <i_epik_Tot_Q>
0

> <i_epik_Tot_abs_Q>
0

> <s_epik_Chemistry_Notes>
This compound has an ester and may undergo hydrolysis at high or low pH.

$$$$
