4zx1_ligand
                    3D
 Schrodinger Suite 2020-3.
 52 53  0  0  1  0            999 V2000
   -0.1420    7.8380   82.2150 C   0  0  2  0  0  0
    0.6410    5.6480   81.4960 O   0  0  0  0  0  0
    1.4360    9.0260   83.7090 C   0  0  1  0  0  0
   -0.4150    5.8270   79.2570 C   0  0  0  0  0  0
    0.3310    5.0430   80.2820 C   0  0  0  0  0  0
    0.6280    3.9010   80.0740 O   0  0  0  0  0  0
    1.0310    7.0830   81.6560 C   0  0  2  0  0  0
    2.3110    7.2140   82.3690 C   0  0  2  0  0  0
    3.0200    5.9000   82.3570 O   0  0  0  0  0  0
    2.3510    7.8180   83.7330 C   0  0  1  0  0  0
    3.6450    8.3470   84.0770 O   0  0  0  0  0  0
    1.7850   10.0020   82.7020 C   0  0  0  0  0  0
    0.7350   10.3610   81.8020 O   0  0  0  0  0  0
    0.1110    8.3410   83.5220 O   0  0  0  0  0  0
   -1.6060    6.8720   82.5840 S   0  0  0  0  0  0
   -2.2920    7.8330   83.4420 O   0  0  0  0  0  0
   -2.5400    6.7310   81.4700 O   0  0  0  0  0  0
   -1.1650    5.7110   83.1660 N   0  0  2  0  0  0
   -1.5100    4.4450   82.5790 C   0  0  0  0  0  0
   -0.8920    3.2690   83.3230 C   0  0  0  0  0  0
   -0.9620    5.7990   84.6030 C   0  0  0  0  0  0
   -1.2880    4.5490   85.3930 C   0  0  0  0  0  0
   -0.7280    3.4030   84.7540 C   0  0  0  0  0  0
   -1.6390    2.4020   85.3500 O   0  0  0  0  0  0
   -1.3070    1.4270   86.4190 S   0  0  0  0  0  0
   -0.9390    1.8390   87.7340 O   0  0  0  0  0  0
   -2.6210    1.2550   86.8810 O   0  0  0  0  0  0
   -1.0260    0.0210   85.9520 N   0  0  0  0  0  0
   -0.1167    8.6485   81.4717 H   0  0  0  0  0  0
    1.4811    9.7040   84.5740 H   0  0  0  0  0  0
   -0.5920    6.8458   79.6320 H   0  0  0  0  0  0
   -1.3793    5.3389   79.0523 H   0  0  0  0  0  0
    0.1758    5.8748   78.3304 H   0  0  0  0  0  0
    1.2757    7.5578   80.6944 H   0  0  0  0  0  0
    2.8051    7.9965   81.7744 H   0  0  0  0  0  0
    3.0844    5.3183   81.4256 H   0  0  0  0  0  0
    2.1146    7.0280   84.4610 H   0  0  0  0  0  0
    3.8031    8.8193   85.0578 H   0  0  0  0  0  0
    2.1065   10.9337   83.1903 H   0  0  0  0  0  0
    2.6049    9.6114   82.0814 H   0  0  0  0  0  0
    0.9203   11.0979   81.0066 H   0  0  0  0  0  0
   -2.6027    4.3191   82.5949 H   0  0  0  0  0  0
   -1.1524    4.4133   81.5392 H   0  0  0  0  0  0
   -1.5185    2.3759   83.1821 H   0  0  0  0  0  0
    0.1166    3.0752   82.9292 H   0  0  0  0  0  0
    0.0939    6.0269   84.8108 H   0  0  0  0  0  0
   -1.5973    6.5969   85.0149 H   0  0  0  0  0  0
   -0.8700    4.6365   86.4067 H   0  0  0  0  0  0
   -2.3796    4.4291   85.4556 H   0  0  0  0  0  0
    0.3642    3.3957   84.8849 H   0  0  0  0  0  0
   -0.7929   -0.6138   86.8196 H   0  0  0  0  0  0
   -0.1692    0.0281   85.2621 H   0  0  0  0  0  0
  1  7  1  0  0  0
  1 14  1  0  0  0
  1 15  1  0  0  0
  1 29  1  0  0  0
  2  5  1  0  0  0
  2  7  1  0  0  0
  3 10  1  0  0  0
  3 12  1  0  0  0
  3 14  1  0  0  0
  3 30  1  0  0  0
  4  5  1  0  0  0
  4 31  1  0  0  0
  4 32  1  0  0  0
  4 33  1  0  0  0
  5  6  2  0  0  0
  7  8  1  0  0  0
  7 34  1  0  0  0
  8  9  1  0  0  0
  8 10  1  0  0  0
  8 35  1  0  0  0
  9 36  1  0  0  0
 10 11  1  0  0  0
 10 37  1  0  0  0
 11 38  1  0  0  0
 12 13  1  0  0  0
 12 39  1  0  0  0
 12 40  1  0  0  0
 13 41  1  0  0  0
 15 16  2  0  0  0
 15 17  2  0  0  0
 15 18  1  0  0  0
 18 19  1  0  0  0
 18 21  1  0  0  0
 19 20  1  0  0  0
 19 42  1  0  0  0
 19 43  1  0  0  0
 20 23  1  0  0  0
 20 44  1  0  0  0
 20 45  1  0  0  0
 21 22  1  0  0  0
 21 46  1  0  0  0
 21 47  1  0  0  0
 22 23  1  0  0  0
 22 48  1  0  0  0
 22 49  1  0  0  0
 23 24  1  0  0  0
 23 50  1  0  0  0
 24 25  1  0  0  0
 25 26  2  0  0  0
 25 27  2  0  0  0
 25 28  1  0  0  0
 28 51  1  0  0  0
 28 52  1  0  0  0
M  END
> <s_m_source_file>
../4zx1_ligand.sdf

> <i_m_source_file_index>
1

> <s_epik_input>
W09IXVtDSDJdW0NAQEhdKE8xKVtDQEhdKFtPSF0pW0NAQEhdKFtPSF0pW0NAQEhdKE9DKD1PKVtDSDNdKVtDQEhdMVMoPU8pKD1PKU4yW0NIMl1bQ0gyXVtDSF0oW0NIMl1bQ0gyXTIpT1MoPU8pKD1PKVtOSDJd

> <s_epik_cmdline>
J2VwaWtfYXBwJywgJy1pbWFlJywgJ2xpZ2FuZF9wcm8ubWFlJywgJy1vbWFlJywgJ2xpZ2FuZF9wcmVwLm1hZScsICctbXMnLCAnMScsICctcGgnLCAnNycsICctcGh0JywgJzAuNScsICctbnQn

> <r_lp_tautomer_probability>
1

> <r_epik_Ionization_Penalty>
  0.0046

> <r_epik_Ionization_Penalty_Charging>
  0.0000

> <r_epik_Ionization_Penalty_Neutral>
  0.0046

> <r_epik_State_Penalty>
 -0.0000

> <r_epik_Charging_Adjusted_Penalty>
0

> <i_epik_Tot_Q>
0

> <i_epik_Tot_abs_Q>
0

> <s_epik_Chemistry_Notes>
This compound has an ester and may undergo hydrolysis at high or low pH.

$$$$
