4zy4_ligand
                    3D
 Schrodinger Suite 2020-3.
 47 51  0  0  1  0            999 V2000
   12.6900  -14.0630   17.1310 C   0  0  0  0  0  0
   11.9290  -12.9910   16.6630 C   0  0  0  0  0  0
   13.7090  -12.3740   15.3030 C   0  0  0  0  0  0
   17.4430  -16.1740   14.8340 C   0  0  0  0  0  0
   18.2070  -16.1400   13.5340 C   0  0  0  0  0  0
   15.6410  -11.6660   13.9460 C   0  0  0  0  0  0
   16.3060  -10.2910   13.9700 C   0  0  0  0  0  0
   14.0670   -9.2010   13.6490 C   0  0  0  0  0  0
   10.6570  -12.9410   17.2450 C   0  0  0  0  0  0
   10.3850  -13.8870   18.1250 C   0  0  0  0  0  0
   11.7510  -14.9670   18.3060 S   0  0  0  0  0  0
   12.4830  -12.1670   15.7450 N   0  0  0  0  0  0
   14.4570  -13.3830   15.7370 N   0  0  0  0  0  0
   13.9970  -14.2470   16.6370 C   0  0  0  0  0  0
   14.7740  -15.3080   17.0940 N   0  0  0  0  0  0
   15.9070  -15.7900   16.4130 C   0  0  3  0  0  0
   16.3060  -15.4970   15.0960 C   0  0  0  0  0  0
   17.7620  -16.8870   15.9350 N   0  0  0  0  0  0
   16.7860  -16.6310   16.9070 N   0  3  0  0  0  0
   17.9000  -14.9900   12.5770 C   0  0  0  0  0  0
   19.2350  -15.0270   13.3250 C   0  0  0  0  0  0
   14.2480  -11.5080   14.3610 N   0  0  0  0  0  0
   15.4940   -9.3230   13.1050 C   0  0  0  0  0  0
   13.3930  -10.5740   13.6260 C   0  0  0  0  0  0
   16.1460   -8.0070   13.1190 N   0  3  0  0  0  0
   18.2282  -17.2378   13.4680 H   0  0  0  0  0  0
   15.6872  -12.0779   12.9271 H   0  0  0  0  0  0
   16.1672  -12.3399   14.6381 H   0  0  0  0  0  0
   16.3424   -9.9194   15.0047 H   0  0  0  0  0  0
   17.3287  -10.3713   13.5730 H   0  0  0  0  0  0
   14.0994   -8.8259   14.6826 H   0  0  0  0  0  0
   13.4944   -8.5011   13.0227 H   0  0  0  0  0  0
    9.9340  -12.1671   16.9871 H   0  0  0  0  0  0
    9.4420  -13.9822   18.6634 H   0  0  0  0  0  0
   15.8595  -14.8524   14.3245 H   0  0  0  0  0  0
   17.7301  -15.3895   11.5663 H   0  0  0  0  0  0
   16.9985  -14.4599   12.9180 H   0  0  0  0  0  0
   19.4363  -14.5288   14.2848 H   0  0  0  0  0  0
   20.1679  -15.4584   12.9331 H   0  0  0  0  0  0
   15.4669   -9.6679   12.0608 H   0  0  0  0  0  0
   12.4049  -10.5054   14.1045 H   0  0  0  0  0  0
   13.2736  -10.9065   12.5843 H   0  0  0  0  0  0
   17.1697   -8.1008   12.7275 H   0  0  0  0  0  0
   16.1813   -7.6263   14.1504 H   0  0  0  0  0  0
   15.5753   -7.3084   12.4895 H   0  0  0  0  0  0
   16.8506  -17.1158   17.8923 H   0  0  0  0  0  0
   15.4785  -13.5161   15.3512 H   0  0  0  0  0  0
  1  2  2  0  0  0
  1 11  1  0  0  0
  1 14  1  0  0  0
  2  9  1  0  0  0
  2 12  1  0  0  0
  3 12  2  0  0  0
  3 13  1  0  0  0
  3 22  1  0  0  0
  4  5  1  0  0  0
  4 17  2  0  0  0
  4 18  1  0  0  0
  5 20  1  0  0  0
  5 21  1  0  0  0
  5 26  1  0  0  0
  6  7  1  0  0  0
  6 22  1  0  0  0
  6 27  1  0  0  0
  6 28  1  0  0  0
  7 23  1  0  0  0
  7 29  1  0  0  0
  7 30  1  0  0  0
  8 23  1  0  0  0
  8 24  1  0  0  0
  8 31  1  0  0  0
  8 32  1  0  0  0
  9 10  2  0  0  0
  9 33  1  0  0  0
 10 11  1  0  0  0
 10 34  1  0  0  0
 13 14  1  0  0  0
 13 47  1  0  0  0
 14 15  2  0  0  0
 15 16  1  0  0  0
 16 17  1  0  0  0
 16 19  1  0  0  0
 17 35  1  0  0  0
 18 19  2  0  0  0
 19 46  1  0  0  0
 20 21  1  0  0  0
 20 36  1  0  0  0
 20 37  1  0  0  0
 21 38  1  0  0  0
 21 39  1  0  0  0
 22 24  1  0  0  0
 23 25  1  0  0  0
 23 40  1  0  0  0
 24 41  1  0  0  0
 24 42  1  0  0  0
 25 43  1  0  0  0
 25 44  1  0  0  0
 25 45  1  0  0  0
M  CHG  2  19   1  25   1
M  END
> <s_m_source_file>
../4zy4_ligand.sdf

> <i_m_source_file_index>
1

> <s_epik_input>
W0NIMl0xW0NIMl1bQ0hdKFtOSDMrXSlbQ0gyXVtDSDJdTjFjKG5jKGMyMylbY0hdW2NIXXMyKW5jM1tOSF1bQ0hdKE49TjQpW0NIXT1DNFtDSF01W0NIMl1bQ0gyXTU=

> <s_epik_cmdline>
J2VwaWtfYXBwJywgJy1pbWFlJywgJ2xpZ2FuZF9wcm8ubWFlJywgJy1vbWFlJywgJ2xpZ2FuZF9wcmVwLm1hZScsICctbXMnLCAnMScsICctcGgnLCAnNycsICctcGh0JywgJzAuNScsICctbnQn

> <r_lp_tautomer_probability>
1

> <r_epik_Ionization_Penalty>
  0.0051

> <r_epik_Ionization_Penalty_Charging>
  0.0051

> <r_epik_Ionization_Penalty_Neutral>
  0.0000

> <r_epik_State_Penalty>
 -0.0000

> <r_epik_Charging_Adjusted_Penalty>
0.00511325800770234

> <i_epik_Tot_Q>
2

> <i_epik_Tot_abs_Q>
2

$$$$
