4zy5_ligand
                    3D
 Schrodinger Suite 2020-3.
 50 53  0  0  1  0            999 V2000
   13.8640  -13.6780   15.4120 N   0  0  0  0  0  0
   12.9080  -12.9090   14.9080 C   0  0  0  0  0  0
   11.3900  -13.6170   16.4970 C   0  0  0  0  0  0
   14.4180  -12.4230   13.0470 C   0  0  0  0  0  0
   17.1120   -9.0120   13.1200 C   0  0  1  0  0  0
   15.6010   -8.7570   13.1880 C   0  0  0  0  0  0
   16.1550  -15.4650   15.0580 C   0  0  0  0  0  0
   17.7360  -15.3350   12.3810 C   0  0  0  0  0  0
   12.3620  -14.4260   17.0510 C   0  0  0  0  0  0
   13.6340  -14.4450   16.4680 C   0  0  0  0  0  0
   11.6920  -12.8800   15.4360 N   0  0  0  0  0  0
   13.2000  -12.1310   13.8000 N   0  0  0  0  0  0
   15.1650  -11.1400   12.6760 C   0  0  2  0  0  0
   16.6710  -11.4140   12.6840 C   0  0  0  0  0  0
   17.4050  -10.1750   12.1760 C   0  0  0  0  0  0
   14.8750  -10.0170   13.6710 C   0  0  0  0  0  0
   17.8050   -7.8070   12.6430 N   0  3  0  0  0  0
   14.6250  -15.2450   17.0200 N   0  0  0  0  0  0
   15.7710  -15.6790   16.3550 C   0  0  0  0  0  0
   16.7350  -16.4330   16.9380 N   0  0  0  0  0  0
   17.7260  -16.6800   15.9850 N   0  3  0  0  0  0
   17.3830  -16.1080   14.8600 C   0  0  0  0  0  0
   18.1990  -16.1540   13.5870 C   0  0  0  0  0  0
   18.9680  -14.8950   13.1780 C   0  0  0  0  0  0
   10.3883  -13.5843   16.9254 H   0  0  0  0  0  0
   15.0841  -13.0513   13.6565 H   0  0  0  0  0  0
   14.1575  -12.9559   12.1206 H   0  0  0  0  0  0
   17.5018   -9.2325   14.1247 H   0  0  0  0  0  0
   15.3993   -7.9334   13.8888 H   0  0  0  0  0  0
   15.2293   -8.4872   12.1885 H   0  0  0  0  0  0
   15.6022  -14.8947   14.3115 H   0  0  0  0  0  0
   17.7578  -15.9652   11.4797 H   0  0  0  0  0  0
   16.7103  -14.9766   12.5531 H   0  0  0  0  0  0
   12.1428  -15.0382   17.9258 H   0  0  0  0  0  0
   12.5406  -11.3098   13.4824 H   0  0  0  0  0  0
   14.8245  -10.8250   11.6786 H   0  0  0  0  0  0
   16.9965  -11.6433   13.7094 H   0  0  0  0  0  0
   16.8915  -12.2700   12.0293 H   0  0  0  0  0  0
   17.0560   -9.9225   11.1638 H   0  0  0  0  0  0
   18.4882  -10.3651   12.1536 H   0  0  0  0  0  0
   15.2424  -10.2912   14.6709 H   0  0  0  0  0  0
   13.7935   -9.8216   13.7186 H   0  0  0  0  0  0
   17.5937   -6.9690   13.3235 H   0  0  0  0  0  0
   17.4512   -7.5566   11.6320 H   0  0  0  0  0  0
   18.8887   -7.9936   12.6165 H   0  0  0  0  0  0
   14.5392  -15.5865   18.0621 H   0  0  0  0  0  0
   18.4527  -17.2107   13.7572 H   0  0  0  0  0  0
   19.8461  -14.8774   12.5157 H   0  0  0  0  0  0
   18.7986  -13.8889   13.5891 H   0  0  0  0  0  0
   18.6112  -17.2751   16.2536 H   0  0  0  0  0  0
  1  2  2  0  0  0
  1 10  1  0  0  0
  2 11  1  0  0  0
  2 12  1  0  0  0
  3  9  1  0  0  0
  3 11  2  0  0  0
  3 25  1  0  0  0
  4 12  1  0  0  0
  4 13  1  0  0  0
  4 26  1  0  0  0
  4 27  1  0  0  0
  5  6  1  0  0  0
  5 15  1  0  0  0
  5 17  1  0  0  0
  5 28  1  0  0  0
  6 16  1  0  0  0
  6 29  1  0  0  0
  6 30  1  0  0  0
  7 19  2  0  0  0
  7 22  1  0  0  0
  7 31  1  0  0  0
  8 23  1  0  0  0
  8 24  1  0  0  0
  8 32  1  0  0  0
  8 33  1  0  0  0
  9 10  2  0  0  0
  9 34  1  0  0  0
 10 18  1  0  0  0
 12 35  1  0  0  0
 13 14  1  0  0  0
 13 16  1  0  0  0
 13 36  1  0  0  0
 14 15  1  0  0  0
 14 37  1  0  0  0
 14 38  1  0  0  0
 15 39  1  0  0  0
 15 40  1  0  0  0
 16 41  1  0  0  0
 16 42  1  0  0  0
 17 43  1  0  0  0
 17 44  1  0  0  0
 17 45  1  0  0  0
 18 19  1  0  0  0
 18 46  1  0  0  0
 19 20  1  0  0  0
 20 21  1  0  0  0
 21 22  2  0  0  0
 21 50  1  0  0  0
 22 23  1  0  0  0
 23 24  1  0  0  0
 23 47  1  0  0  0
 24 48  1  0  0  0
 24 49  1  0  0  0
M  CHG  2  17   1  21   1
M  END
> <s_m_source_file>
../4zy5_ligand.sdf

> <i_m_source_file_index>
1

> <s_epik_input>
W0NIMl0xW0NIMl1bQ0hdMWMobltuSF0yKVtjSF1jMltOSF1jKFtjSF1bY0hdbjMpbmMzW05IXVtDSDJdW0NASF0oW0NIMl1bQ0gyXTQpW0NIMl1bQ0gyXVtDQEBIXTRbTkgzK10=

> <s_epik_cmdline>
J2VwaWtfYXBwJywgJy1pbWFlJywgJ2xpZ2FuZF9wcm8ubWFlJywgJy1vbWFlJywgJ2xpZ2FuZF9wcmVwLm1hZScsICctbXMnLCAnMScsICctcGgnLCAnNycsICctcGh0JywgJzAuNScsICctbnQn

> <r_lp_tautomer_probability>
1

> <r_epik_Ionization_Penalty>
  0.0056

> <r_epik_Ionization_Penalty_Charging>
  0.0001

> <r_epik_Ionization_Penalty_Neutral>
  0.0055

> <r_epik_State_Penalty>
 -0.0000

> <r_epik_Charging_Adjusted_Penalty>
0.000127942102600246

> <i_epik_Tot_Q>
2

> <i_epik_Tot_abs_Q>
2

$$$$
