4zy6_ligand
                    3D
 Schrodinger Suite 2020-3.
 44 48  0  0  1  0            999 V2000
   16.7120  -12.1470   13.0380 C   0  0  0  0  0  0
   15.7970  -13.1840   12.8160 C   0  0  0  0  0  0
   14.6310  -13.2590   13.5680 C   0  0  0  0  0  0
   13.6480  -14.3840   13.2620 C   0  0  0  0  0  0
   13.5790  -15.9670   17.0880 C   0  0  0  0  0  0
   16.3610  -16.6320   15.6630 C   0  0  0  0  0  0
   18.5680  -17.1900   14.3930 C   0  0  0  0  0  0
   18.0850  -17.0850   12.9540 C   0  0  0  0  0  0
   14.3820  -12.2850   14.5540 C   0  0  0  0  0  0
   15.2840  -11.2540   14.7980 C   0  0  0  0  0  0
   16.4570  -11.1840   14.0310 C   0  0  0  0  0  0
   12.4520  -14.3080   14.1190 N   0  0  0  0  0  0
   12.4670  -14.8160   15.4120 C   0  0  0  0  0  0
   11.3900  -14.6550   16.1830 N   0  0  0  0  0  0
   11.3430  -15.1470   17.4250 C   0  0  0  0  0  0
   12.4440  -15.8350   17.9180 C   0  0  0  0  0  0
   13.5490  -15.4780   15.8490 N   0  0  0  0  0  0
   14.6750  -16.6300   17.5880 N   0  0  0  0  0  0
   15.8610  -16.9860   16.9360 C   0  0  0  0  0  0
   17.5690  -17.2390   15.5290 C   0  0  0  0  0  0
   17.8060  -17.9290   16.6610 N   0  3  0  0  0  0
   16.7300  -17.7630   17.5220 N   0  0  0  0  0  0
   18.7700  -15.8850   13.6240 C   0  0  0  0  0  0
   16.1650  -14.3740   11.6040 Cl  0  0  0  0  0  0
   17.9000  -11.8320   12.4650 N   0  0  0  0  0  0
   18.3750  -10.7430   12.9930 C   0  0  0  0  0  0
   17.5380  -10.3200   13.9830 N   0  3  0  0  0  0
   13.3274  -14.3153   12.2120 H   0  0  0  0  0  0
   14.1365  -15.3545   13.4334 H   0  0  0  0  0  0
   15.8708  -15.9934   14.9282 H   0  0  0  0  0  0
   19.2217  -17.8850   14.9404 H   0  0  0  0  0  0
   18.5945  -17.8423   12.3401 H   0  0  0  0  0  0
   16.9987  -17.2544   12.9185 H   0  0  0  0  0  0
   13.4635  -12.3398   15.1383 H   0  0  0  0  0  0
   15.0828  -10.5132   15.5719 H   0  0  0  0  0  0
   11.5305  -13.8442   13.7373 H   0  0  0  0  0  0
   10.4544  -15.0103   18.0412 H   0  0  0  0  0  0
   12.4325  -16.2625   18.9206 H   0  0  0  0  0  0
   14.6891  -16.9549   18.6388 H   0  0  0  0  0  0
   18.2486  -15.0682   14.1446 H   0  0  0  0  0  0
   19.8443  -15.6561   13.5661 H   0  0  0  0  0  0
   19.3173  -10.3161   12.6191 H   0  0  0  0  0  0
   18.7406  -18.4982   16.7727 H   0  0  0  0  0  0
   17.5954   -9.4716   14.6808 H   0  0  0  0  0  0
  1  2  2  0  0  0
  1 11  1  0  0  0
  1 25  1  0  0  0
  2  3  1  0  0  0
  2 24  1  0  0  0
  3  4  1  0  0  0
  3  9  2  0  0  0
  4 12  1  0  0  0
  4 28  1  0  0  0
  4 29  1  0  0  0
  5 16  2  0  0  0
  5 17  1  0  0  0
  5 18  1  0  0  0
  6 19  2  0  0  0
  6 20  1  0  0  0
  6 30  1  0  0  0
  7  8  1  0  0  0
  7 20  1  0  0  0
  7 23  1  0  0  0
  7 31  1  0  0  0
  8 23  1  0  0  0
  8 32  1  0  0  0
  8 33  1  0  0  0
  9 10  1  0  0  0
  9 34  1  0  0  0
 10 11  2  0  0  0
 10 35  1  0  0  0
 11 27  1  0  0  0
 12 13  1  0  0  0
 12 36  1  0  0  0
 13 14  1  0  0  0
 13 17  2  0  0  0
 14 15  2  0  0  0
 15 16  1  0  0  0
 15 37  1  0  0  0
 16 38  1  0  0  0
 18 19  1  0  0  0
 18 39  1  0  0  0
 19 22  1  0  0  0
 20 21  2  0  0  0
 21 22  1  0  0  0
 21 43  1  0  0  0
 23 40  1  0  0  0
 23 41  1  0  0  0
 25 26  2  0  0  0
 26 27  1  0  0  0
 26 42  1  0  0  0
 27 44  1  0  0  0
M  CHG  2  21   1  27   1
M  END
> <s_m_source_file>
../4zy6_ligand.sdf

> <i_m_source_file_index>
1

> <s_epik_input>
bjFbY0hdW25IXWMoYzEyKVtjSF1bY0hdYyhjMkNsKVtDSDJdW05IXWMobjMpbltjSF1bY0hdYzNbTkhdYzRbY0hdYyhuW25IXTQpW0NIXTVbQ0gyXVtDSDJdNQ==

> <s_epik_cmdline>
J2VwaWtfYXBwJywgJy1pbWFlJywgJ2xpZ2FuZF9wcm8ubWFlJywgJy1vbWFlJywgJ2xpZ2FuZF9wcmVwLm1hZScsICctbXMnLCAnMScsICctcGgnLCAnNycsICctcGh0JywgJzAuNScsICctbnQn

> <r_epik_Ionization_Penalty>
  0.0042

> <r_epik_Ionization_Penalty_Charging>
  0.0000

> <r_epik_Ionization_Penalty_Neutral>
  0.0042

> <r_epik_State_Penalty>
  0.0001

> <r_epik_Charging_Adjusted_Penalty>
7.48036210722544e-05

> <i_epik_Tot_Q>
2

> <i_epik_Tot_abs_Q>
2

> <s_epik_Chemistry_Notes>
This compound has an imine and may undergo hydrolysis.

$$$$
