4zyc_ligand
                    3D
 Schrodinger Suite 2020-3.
 67 71  0  0  1  0            999 V2000
    5.2310    0.4620   18.9470 C   0  0  0  0  0  0
    5.1780    1.8380   18.7020 C   0  0  0  0  0  0
    3.2550    3.4730   22.8240 C   0  0  0  0  0  0
    2.9680    4.8270   23.0070 C   0  0  0  0  0  0
    3.9370    5.6740   23.5730 C   0  0  0  0  0  0
    5.1820    5.1430   23.9350 C   0  0  0  0  0  0
    5.4590    3.7770   23.7420 C   0  0  0  0  0  0
    4.4900    2.9280   23.1820 C   0  0  0  0  0  0
    6.2260    6.0800   24.5410 C   0  0  0  0  0  0
    1.1940    6.5810   22.6560 C   0  0  0  0  0  0
    2.0960    2.8080   20.7640 C   0  0  2  0  0  0
    1.4130    1.9340   23.0250 C   0  0  0  0  0  0
    0.2950    1.1290   22.4050 C   0  0  0  0  0  0
   -0.1360    1.6250   21.0080 C   0  0  0  0  0  0
    0.7310    2.4010   20.2200 C   0  0  0  0  0  0
    0.3410    2.8350   18.9450 C   0  0  0  0  0  0
   -0.9230    2.4900   18.4450 C   0  0  0  0  0  0
   -1.7840    1.7100   19.2150 C   0  0  0  0  0  0
   -1.3880    1.2760   20.4960 C   0  0  0  0  0  0
   -4.0010    0.5590   19.2000 C   0  0  0  0  0  0
    6.4850   -0.5300   18.2320 Cl  0  0  0  0  0  0
    4.1640    2.6110   19.2770 C   0  0  0  0  0  0
    3.2140    1.9970   20.1090 C   0  0  0  0  0  0
    3.2720    0.6250   20.3500 C   0  0  0  0  0  0
    4.2820   -0.1460   19.7700 C   0  0  0  0  0  0
    2.2240    2.6930   22.2390 N   0  0  0  0  0  0
   -3.0210    1.4210   18.6270 O   0  0  0  0  0  0
   -5.3030    0.6040   18.3550 C   0  0  0  0  0  0
   -1.3880    2.8750   17.1840 O   0  0  0  0  0  0
   -0.7420    3.8540   16.3440 C   0  0  0  0  0  0
    0.1540    3.1120   15.3280 C   0  0  0  0  0  0
    1.5510    1.8600   24.2410 O   0  0  0  0  0  0
    1.6870    5.2420   22.6110 O   0  0  0  0  0  0
    1.5660    7.2460   21.3630 C   0  0  0  0  0  0
    1.8500    8.4720   21.2250 N   0  0  0  0  0  0
    2.1280    8.6920   19.9300 N   0  3  0  0  0  0
    2.0090    7.5530   19.2260 N   0  0  0  0  0  0
    1.6540    6.5760   20.0850 N   0  3  0  0  0  0
    5.9263    2.3076   18.0635 H   0  0  0  0  0  0
    3.7222    6.7313   23.7283 H   0  0  0  0  0  0
    6.4309    3.3753   24.0286 H   0  0  0  0  0  0
    4.6972    1.8687   23.0304 H   0  0  0  0  0  0
    5.8124    7.0973   24.6052 H   0  0  0  0  0  0
    7.1238    6.0886   23.9055 H   0  0  0  0  0  0
    6.4932    5.7286   25.5485 H   0  0  0  0  0  0
    0.1009    6.5653   22.7782 H   0  0  0  0  0  0
    1.6503    7.1114   23.5048 H   0  0  0  0  0  0
    2.1918    3.8811   20.5418 H   0  0  0  0  0  0
    0.6150    0.0825   22.2934 H   0  0  0  0  0  0
   -0.5924    1.1739   23.0534 H   0  0  0  0  0  0
    1.0194    3.4398   18.3432 H   0  0  0  0  0  0
   -2.0641    0.6631   21.0921 H   0  0  0  0  0  0
   -3.6165   -0.4714   19.2195 H   0  0  0  0  0  0
   -4.2229    0.8871   20.2262 H   0  0  0  0  0  0
    4.1116    3.6819   19.0807 H   0  0  0  0  0  0
    2.5280    0.1533   20.9920 H   0  0  0  0  0  0
    4.3288   -1.2184   19.9594 H   0  0  0  0  0  0
   -6.0541   -0.0632   18.8030 H   0  0  0  0  0  0
   -5.0854    0.2743   17.3284 H   0  0  0  0  0  0
   -5.6918    1.6328   18.3351 H   0  0  0  0  0  0
   -1.5050    4.4420   15.8129 H   0  0  0  0  0  0
   -0.1299    4.5239   16.9657 H   0  0  0  0  0  0
    0.6554    3.8442   14.6780 H   0  0  0  0  0  0
   -0.4652    2.4408   14.7148 H   0  0  0  0  0  0
    0.9099    2.5226   15.8677 H   0  0  0  0  0  0
    2.3798    9.6093   19.6215 H   0  0  0  0  0  0
    1.5061    5.5491   19.7194 H   0  0  0  0  0  0
  1  2  2  0  0  0
  1 21  1  0  0  0
  1 25  1  0  0  0
  2 22  1  0  0  0
  2 39  1  0  0  0
  3  4  2  0  0  0
  3  8  1  0  0  0
  3 26  1  0  0  0
  4  5  1  0  0  0
  4 33  1  0  0  0
  5  6  2  0  0  0
  5 40  1  0  0  0
  6  7  1  0  0  0
  6  9  1  0  0  0
  7  8  2  0  0  0
  7 41  1  0  0  0
  8 42  1  0  0  0
  9 43  1  0  0  0
  9 44  1  0  0  0
  9 45  1  0  0  0
 10 33  1  0  0  0
 10 34  1  0  0  0
 10 46  1  0  0  0
 10 47  1  0  0  0
 11 15  1  0  0  0
 11 23  1  0  0  0
 11 26  1  0  0  0
 11 48  1  0  0  0
 12 13  1  0  0  0
 12 26  1  0  0  0
 12 32  2  0  0  0
 13 14  1  0  0  0
 13 49  1  0  0  0
 13 50  1  0  0  0
 14 15  2  0  0  0
 14 19  1  0  0  0
 15 16  1  0  0  0
 16 17  2  0  0  0
 16 51  1  0  0  0
 17 18  1  0  0  0
 17 29  1  0  0  0
 18 19  2  0  0  0
 18 27  1  0  0  0
 19 52  1  0  0  0
 20 27  1  0  0  0
 20 28  1  0  0  0
 20 53  1  0  0  0
 20 54  1  0  0  0
 22 23  2  0  0  0
 22 55  1  0  0  0
 23 24  1  0  0  0
 24 25  2  0  0  0
 24 56  1  0  0  0
 25 57  1  0  0  0
 28 58  1  0  0  0
 28 59  1  0  0  0
 28 60  1  0  0  0
 29 30  1  0  0  0
 30 31  1  0  0  0
 30 61  1  0  0  0
 30 62  1  0  0  0
 31 63  1  0  0  0
 31 64  1  0  0  0
 31 65  1  0  0  0
 34 35  2  0  0  0
 34 38  1  0  0  0
 35 36  1  0  0  0
 36 37  1  0  0  0
 36 66  1  0  0  0
 37 38  2  0  0  0
 38 67  1  0  0  0
M  CHG  2  36   1  38   1
M  END
> <s_m_source_file>
../4zyc_ligand.sdf

> <i_m_source_file_index>
1

> <s_epik_input>
W0NIM11bQ0gyXU9jKFtjSF0xKWMoT1tDSDJdW0NIM10pW2NIXWMoYzEyKVtDQEhdKGMoW2NIXVtjSF0zKVtjSF1bY0hdYzNDbClOKEMoPU8pW0NIMl0yKWM0YyhbY0hdYyhbQ0gzXSlbY0hdW2NIXTQpT1tDSDJdYzVuW25IXW5uNQ==

> <s_epik_cmdline>
J2VwaWtfYXBwJywgJy1pbWFlJywgJ2xpZ2FuZF9wcm8ubWFlJywgJy1vbWFlJywgJ2xpZ2FuZF9wcmVwLm1hZScsICctbXMnLCAnMScsICctcGgnLCAnNycsICctcGh0JywgJzAuNScsICctbnQn

> <r_epik_Ionization_Penalty>
 13.1832

> <r_epik_Ionization_Penalty_Charging>
 13.1832

> <r_epik_Ionization_Penalty_Neutral>
  0.0000

> <r_epik_State_Penalty>
  0.0112

> <r_epik_Charging_Adjusted_Penalty>
13.1944185661555

> <i_epik_Tot_Q>
2

> <i_epik_Tot_abs_Q>
2

> <s_epik_Chemistry_Notes>
This compound has an imine and may undergo hydrolysis.

$$$$
