4zyi_ligand
                    3D
 Schrodinger Suite 2020-3.
 75 79  0  0  1  0            999 V2000
    5.0520   14.6800   -1.1380 C   0  0  0  0  0  0
    5.9910   14.2940   -0.1920 C   0  0  0  0  0  0
    3.0550   10.8000    3.1040 C   0  0  0  0  0  0
    5.9590    9.4720   -4.0750 C   0  0  0  0  0  0
    5.2430    9.0730   -2.7750 C   0  0  0  0  0  0
    5.5650    9.6450   -1.5140 C   0  0  0  0  0  0
    4.9280    9.3100   -0.3190 C   0  0  0  0  0  0
    3.9070    8.3430   -0.3730 C   0  0  0  0  0  0
    3.5700    7.7640   -1.6080 C   0  0  0  0  0  0
    4.2270    8.1140   -2.8170 C   0  0  0  0  0  0
    1.9770    6.2290   -2.7170 C   0  0  0  0  0  0
    3.2850    8.5240    2.0890 C   0  0  2  0  0  0
    2.4740    9.8510    2.0880 C   0  0  0  0  0  0
    8.8740   11.1250   -2.2000 C   0  0  0  0  0  0
    9.7940   10.3860   -1.4440 C   0  0  0  0  0  0
   11.0420   10.9270   -1.0940 C   0  0  0  0  0  0
   11.3890   12.2260   -1.5270 C   0  0  0  0  0  0
   10.4330   12.9500   -2.2900 C   0  0  0  0  0  0
    9.1790   12.4350   -2.6400 C   0  0  0  0  0  0
    4.4130   16.2880   -1.0610 Cl  0  0  0  0  0  0
    6.4830   12.9790   -0.3070 C   0  0  0  0  0  0
    6.0440   12.1040   -1.3180 C   0  0  0  0  0  0
    5.1010   12.5320   -2.2690 C   0  0  0  0  0  0
    4.6010   13.8470   -2.1590 C   0  0  0  0  0  0
    6.6370   10.6790   -1.3930 C   0  0  2  0  0  0
    7.6100   10.5720   -2.5270 N   0  0  0  0  0  0
    7.3170   10.0490   -3.7540 C   0  0  0  0  0  0
    2.5470    6.8160   -1.5500 O   0  0  0  0  0  0
    3.2120    7.9330    0.7800 O   0  0  0  0  0  0
    8.1560   10.0120   -4.6270 O   0  0  0  0  0  0
    2.6510    7.5410    3.0560 C   0  0  0  0  0  0
   12.6390   12.8260   -1.1860 N   0  0  0  0  0  0
   12.8680   14.1880   -1.5710 C   0  0  0  0  0  0
   13.6390   12.0940   -0.4530 C   0  0  0  0  0  0
   16.5750   10.0480   -2.7990 N   0  3  0  0  0  0
   15.6310   10.5990   -0.6760 C   0  0  0  0  0  0
   16.5950    9.9220   -1.4440 C   0  0  0  0  0  0
   15.6550   10.7970   -3.4560 C   0  0  0  0  0  0
   14.6690   11.4810   -2.7130 C   0  0  0  0  0  0
   14.6570   11.3820   -1.3210 C   0  0  0  0  0  0
    6.3283   14.9691    0.5945 H   0  0  0  0  0  0
    2.4796   11.7375    3.1011 H   0  0  0  0  0  0
    4.1038   11.0127    2.8494 H   0  0  0  0  0  0
    3.0058   10.3426    4.1032 H   0  0  0  0  0  0
    6.0823    8.5844   -4.7130 H   0  0  0  0  0  0
    5.3599   10.2256   -4.6071 H   0  0  0  0  0  0
    5.2109    9.7803    0.6227 H   0  0  0  0  0  0
    3.9447    7.6442   -3.7592 H   0  0  0  0  0  0
    1.1934    5.5151   -2.4230 H   0  0  0  0  0  0
    2.7599    5.7020   -3.2821 H   0  0  0  0  0  0
    1.5378    7.0169   -3.3465 H   0  0  0  0  0  0
    4.3447    8.6964    2.3284 H   0  0  0  0  0  0
    1.4252    9.6383    2.3426 H   0  0  0  0  0  0
    2.5232   10.3084    1.0888 H   0  0  0  0  0  0
    9.5372    9.3765   -1.1229 H   0  0  0  0  0  0
   11.7401   10.3467   -0.4906 H   0  0  0  0  0  0
   10.6891   13.9570   -2.6193 H   0  0  0  0  0  0
    8.4684   13.0178   -3.2260 H   0  0  0  0  0  0
    7.2264   12.6285    0.4090 H   0  0  0  0  0  0
    4.7665   11.8686   -3.0666 H   0  0  0  0  0  0
    3.8620   14.2107   -2.8729 H   0  0  0  0  0  0
    7.1818   10.4554   -0.4639 H   0  0  0  0  0  0
    2.6854    7.9548    4.0746 H   0  0  0  0  0  0
    3.2037    6.5904    3.0275 H   0  0  0  0  0  0
    1.6043    7.3654    2.7667 H   0  0  0  0  0  0
   11.9920   14.5666   -2.1182 H   0  0  0  0  0  0
   13.7559   14.2418   -2.2181 H   0  0  0  0  0  0
   13.0317   14.8005   -0.6721 H   0  0  0  0  0  0
   14.1980   12.7852    0.1949 H   0  0  0  0  0  0
   13.1515   11.3255    0.1649 H   0  0  0  0  0  0
   15.6386   10.5175    0.4109 H   0  0  0  0  0  0
   17.3501    9.3030   -0.9594 H   0  0  0  0  0  0
   15.6767   10.8698   -4.5433 H   0  0  0  0  0  0
   13.9194   12.0846   -3.2247 H   0  0  0  0  0  0
   17.3277    9.5292   -3.4108 H   0  0  0  0  0  0
  1  2  2  0  0  0
  1 20  1  0  0  0
  1 24  1  0  0  0
  2 21  1  0  0  0
  2 41  1  0  0  0
  3 13  1  0  0  0
  3 42  1  0  0  0
  3 43  1  0  0  0
  3 44  1  0  0  0
  4  5  1  0  0  0
  4 27  1  0  0  0
  4 45  1  0  0  0
  4 46  1  0  0  0
  5  6  2  0  0  0
  5 10  1  0  0  0
  6  7  1  0  0  0
  6 25  1  0  0  0
  7  8  2  0  0  0
  7 47  1  0  0  0
  8  9  1  0  0  0
  8 29  1  0  0  0
  9 10  2  0  0  0
  9 28  1  0  0  0
 10 48  1  0  0  0
 11 28  1  0  0  0
 11 49  1  0  0  0
 11 50  1  0  0  0
 11 51  1  0  0  0
 12 13  1  0  0  0
 12 29  1  0  0  0
 12 31  1  0  0  0
 12 52  1  0  0  0
 13 53  1  0  0  0
 13 54  1  0  0  0
 14 15  2  0  0  0
 14 19  1  0  0  0
 14 26  1  0  0  0
 15 16  1  0  0  0
 15 55  1  0  0  0
 16 17  2  0  0  0
 16 56  1  0  0  0
 17 18  1  0  0  0
 17 32  1  0  0  0
 18 19  2  0  0  0
 18 57  1  0  0  0
 19 58  1  0  0  0
 21 22  2  0  0  0
 21 59  1  0  0  0
 22 23  1  0  0  0
 22 25  1  0  0  0
 23 24  2  0  0  0
 23 60  1  0  0  0
 24 61  1  0  0  0
 25 26  1  0  0  0
 25 62  1  0  0  0
 26 27  1  0  0  0
 27 30  2  0  0  0
 31 63  1  0  0  0
 31 64  1  0  0  0
 31 65  1  0  0  0
 32 33  1  0  0  0
 32 34  1  0  0  0
 33 66  1  0  0  0
 33 67  1  0  0  0
 33 68  1  0  0  0
 34 40  1  0  0  0
 34 69  1  0  0  0
 34 70  1  0  0  0
 35 37  2  0  0  0
 35 38  1  0  0  0
 35 75  1  0  0  0
 36 37  1  0  0  0
 36 40  2  0  0  0
 36 71  1  0  0  0
 37 72  1  0  0  0
 38 39  2  0  0  0
 38 73  1  0  0  0
 39 40  1  0  0  0
 39 74  1  0  0  0
M  CHG  1  35   1
M  END
> <s_m_source_file>
../4zyi_ligand.sdf

> <i_m_source_file_index>
1

> <s_epik_input>
W0NIM11bQ0gyXVtDQEBIXShbQ0gzXSlPYyhjKFtjSF0xKU9bQ0gzXSlbY0hdYyhjMTIpW0NASF0oYyhbY0hdW2NIXTMpW2NIXVtjSF1jM0NsKU4oQyg9TylbQ0gyXTIpYzRbY0hdW2NIXWMoW2NIXVtjSF00KU4oW0NIM10pW0NIMl1jNVtjSF1bY0hdbltjSF1bY0hdNQ==

> <s_epik_cmdline>
J2VwaWtfYXBwJywgJy1pbWFlJywgJ2xpZ2FuZF9wcm8ubWFlJywgJy1vbWFlJywgJ2xpZ2FuZF9wcmVwLm1hZScsICctbXMnLCAnMScsICctcGgnLCAnNycsICctcGh0JywgJzAuNScsICctbnQn

> <r_lp_tautomer_probability>
1

> <r_epik_Ionization_Penalty>
  0.1896

> <r_epik_Ionization_Penalty_Charging>
  0.1896

> <r_epik_Ionization_Penalty_Neutral>
  0.0000

> <r_epik_State_Penalty>
  0.1792

> <r_epik_Charging_Adjusted_Penalty>
0.368742822970466

> <i_epik_Tot_Q>
1

> <i_epik_Tot_abs_Q>
1

$$$$
