4zyr_ligand
                    3D
 Schrodinger Suite 2020-3.
 36 37  0  0  1  0            999 V2000
   26.9250  -17.3060   50.6780 C   0  0  0  0  0  0
   27.8070  -18.2230   51.5230 C   0  0  2  0  0  0
   27.4680  -18.0290   53.0070 C   0  0  1  0  0  0
   28.4260  -18.8360   53.8860 C   0  0  1  0  0  0
   29.8580  -18.4960   53.4900 C   0  0  2  0  0  0
   30.0130  -18.7930   52.0070 C   0  0  1  0  0  0
   33.2340  -23.7960   48.1850 O   0  5  0  0  0  0
   33.5110  -22.7810   48.7070 N   0  3  0  0  0  0
   34.5910  -22.3330   48.5880 O   0  0  0  0  0  0
   32.5140  -22.0860   49.5000 C   0  0  0  0  0  0
   32.8380  -20.9170   50.1700 C   0  0  0  0  0  0
   31.8780  -20.2610   50.9240 C   0  0  0  0  0  0
   30.5950  -20.7740   51.0060 C   0  0  0  0  0  0
   30.2710  -21.9420   50.3370 C   0  0  0  0  0  0
   31.2300  -22.5990   49.5840 C   0  0  0  0  0  0
   29.6260  -20.1170   51.7670 O   0  0  0  0  0  0
   30.7680  -19.2650   54.2370 O   0  0  0  0  0  0
   28.2110  -18.5120   55.2340 O   0  0  0  0  0  0
   27.5870  -16.6750   53.3310 O   0  0  0  0  0  0
   29.1630  -17.9390   51.2980 O   0  0  0  0  0  0
   27.4380  -16.0020   50.6670 O   0  0  0  0  0  0
   26.8874  -17.6830   49.6453 H   0  0  0  0  0  0
   25.9086  -17.2857   51.0981 H   0  0  0  0  0  0
   27.7054  -19.2730   51.2114 H   0  0  0  0  0  0
   26.4199  -18.2903   53.2150 H   0  0  0  0  0  0
   28.2355  -19.9180   53.8323 H   0  0  0  0  0  0
   30.1285  -17.4597   53.7406 H   0  0  0  0  0  0
   31.0332  -18.6662   51.6156 H   0  0  0  0  0  0
   33.8483  -20.5133   50.1039 H   0  0  0  0  0  0
   32.1329  -19.3421   51.4519 H   0  0  0  0  0  0
   29.2603  -22.3449   50.4029 H   0  0  0  0  0  0
   30.9746  -23.5189   49.0580 H   0  0  0  0  0  0
   30.7936  -19.1758   55.3331 H   0  0  0  0  0  0
   27.2274  -18.6912   55.6926 H   0  0  0  0  0  0
   26.9755  -15.9276   52.8042 H   0  0  0  0  0  0
   26.9207  -15.2122   50.1025 H   0  0  0  0  0  0
  1  2  1  0  0  0
  1 21  1  0  0  0
  1 22  1  0  0  0
  1 23  1  0  0  0
  2  3  1  0  0  0
  2 20  1  0  0  0
  2 24  1  0  0  0
  3  4  1  0  0  0
  3 19  1  0  0  0
  3 25  1  0  0  0
  4  5  1  0  0  0
  4 18  1  0  0  0
  4 26  1  0  0  0
  5  6  1  0  0  0
  5 17  1  0  0  0
  5 27  1  0  0  0
  6 16  1  0  0  0
  6 20  1  0  0  0
  6 28  1  0  0  0
  7  8  1  0  0  0
  8  9  2  0  0  0
  8 10  1  0  0  0
 10 11  2  0  0  0
 10 15  1  0  0  0
 11 12  1  0  0  0
 11 29  1  0  0  0
 12 13  2  0  0  0
 12 30  1  0  0  0
 13 14  1  0  0  0
 13 16  1  0  0  0
 14 15  2  0  0  0
 14 31  1  0  0  0
 15 32  1  0  0  0
 17 33  1  0  0  0
 18 34  1  0  0  0
 19 35  1  0  0  0
 21 36  1  0  0  0
M  CHG  2   7  -1   8   1
M  END
> <s_m_source_file>
../4zyr_ligand.sdf

> <i_m_source_file_index>
1

> <s_epik_input>
W09IXVtDSDJdW0NAQEhdMVtDQEhdKFtPSF0pW0NASF0oW09IXSlbQ0BASF0oW09IXSlbQ0BIXShPMSlPYyhbY0hdW2NIXTIpW2NIXVtjSF1jMltOK10oW08tXSk9Tw==

> <s_epik_cmdline>
J2VwaWtfYXBwJywgJy1pbWFlJywgJ2xpZ2FuZF9wcm8ubWFlJywgJy1vbWFlJywgJ2xpZ2FuZF9wcmVwLm1hZScsICctbXMnLCAnMScsICctcGgnLCAnNycsICctcGh0JywgJzAuNScsICctbnQn

> <r_lp_tautomer_probability>
1

> <r_epik_Ionization_Penalty>
  0.0000

> <r_epik_Ionization_Penalty_Charging>
  0.0000

> <r_epik_Ionization_Penalty_Neutral>
  0.0000

> <r_epik_State_Penalty>
 -0.0000

> <r_epik_Charging_Adjusted_Penalty>
0

> <i_epik_Tot_Q>
0

> <i_epik_Tot_abs_Q>
2

> <s_epik_Chemistry_Notes>
This compound contains an acetal/aminal-like group ( X-CH(R)-Y where X, Y are N, S, or O) that may be acid/base labile, releasing an aldehyde.

$$$$
