4zz1_ligand
                    3D
 Schrodinger Suite 2020-3.
 49 51  0  0  1  0            999 V2000
   25.6520  -10.8740  -23.8710 N   0  3  0  0  0  0
   24.5820  -11.0170  -24.6440 C   0  0  0  0  0  0
   23.9470  -12.1960  -24.7730 N   0  0  0  0  0  0
   24.3830  -13.3070  -24.1400 C   0  0  0  0  0  0
   27.2010  -12.0270  -22.3820 N   0  0  0  0  0  0
   27.3310  -13.2700  -21.9270 C   0  0  0  0  0  0
   26.3090  -14.0720  -22.4850 C   0  0  0  0  0  0
   25.5360  -13.2000  -23.3040 C   0  0  0  0  0  0
   26.1590  -11.9320  -23.1960 C   0  0  0  0  0  0
   23.8010  -14.3860  -24.2700 O   0  0  0  0  0  0
   24.0790   -9.9060  -25.3250 N   0  0  0  0  0  0
   26.1330  -11.4310  -17.5810 C   0  0  0  0  0  0
   25.4000  -10.9250  -16.5390 C   0  0  0  0  0  0
   24.2060  -12.0790  -16.1900 S   0  0  0  0  0  0
   24.6630  -13.2210  -17.3810 C   0  0  0  0  0  0
   25.7420  -12.7070  -18.0570 C   0  0  0  0  0  0
   25.5640   -9.6680  -15.8570 C   0  0  0  0  0  0
   24.6730   -9.2630  -15.0880 O   0  0  0  0  0  0
   26.7560   -8.9200  -16.0900 N   0  0  0  0  0  0
   26.9240   -7.6640  -15.4220 C   0  0  1  0  0  0
   28.1350   -7.7210  -14.5710 C   0  0  0  0  0  0
   27.8740   -8.5250  -13.3050 C   0  0  0  0  0  0
   29.1800   -8.9830  -12.6130 C   0  0  0  0  0  0
   29.2340  -10.1280  -12.0330 O   0  0  0  0  0  0
   30.2290   -8.2000  -12.6180 O   0  5  0  0  0  0
   27.0690   -6.5900  -16.5010 C   0  0  0  0  0  0
   26.6820   -5.3740  -16.2540 O   0  5  0  0  0  0
   27.5590   -6.8950  -17.6480 O   0  0  0  0  0  0
   28.4160  -13.6830  -20.9080 C   0  0  0  0  0  0
   27.9070  -13.1030  -19.5180 C   0  0  0  0  0  0
   26.4250  -13.4230  -19.2260 C   0  0  0  0  0  0
   26.1338   -9.8898  -23.7752 H   0  0  0  0  0  0
   26.1463  -15.1374  -22.3221 H   0  0  0  0  0  0
   24.5815   -8.9316  -25.2347 H   0  0  0  0  0  0
   26.9681  -10.8835  -18.0180 H   0  0  0  0  0  0
   24.1841  -14.1820  -17.5686 H   0  0  0  0  0  0
   27.5385   -9.2913  -16.7682 H   0  0  0  0  0  0
   26.0569   -7.4896  -14.7680 H   0  0  0  0  0  0
   28.9536   -8.1982  -15.1297 H   0  0  0  0  0  0
   28.4315   -6.7007  -14.2863 H   0  0  0  0  0  0
   27.3100   -7.9090  -12.5892 H   0  0  0  0  0  0
   27.2906   -9.4234  -13.5549 H   0  0  0  0  0  0
   28.5004  -14.7795  -20.8865 H   0  0  0  0  0  0
   29.3816  -13.2467  -21.2034 H   0  0  0  0  0  0
   28.5049  -13.5323  -18.7006 H   0  0  0  0  0  0
   28.0153  -12.0083  -19.5157 H   0  0  0  0  0  0
   26.3995  -14.5095  -19.0558 H   0  0  0  0  0  0
   25.8960  -13.1858  -20.1608 H   0  0  0  0  0  0
   23.1804  -10.0054  -25.9516 H   0  0  0  0  0  0
  1  2  2  0  0  0
  1  9  1  0  0  0
  1 32  1  0  0  0
  2  3  1  0  0  0
  2 11  1  0  0  0
  3  4  1  0  0  0
  4  8  1  0  0  0
  4 10  2  0  0  0
  5  6  2  0  0  0
  5  9  1  0  0  0
  6  7  1  0  0  0
  6 29  1  0  0  0
  7  8  1  0  0  0
  7 33  1  0  0  0
  8  9  2  0  0  0
 11 34  1  0  0  0
 11 49  1  0  0  0
 12 13  2  0  0  0
 12 16  1  0  0  0
 12 35  1  0  0  0
 13 14  1  0  0  0
 13 17  1  0  0  0
 14 15  1  0  0  0
 15 16  2  0  0  0
 15 36  1  0  0  0
 16 31  1  0  0  0
 17 18  2  0  0  0
 17 19  1  0  0  0
 19 20  1  0  0  0
 19 37  1  0  0  0
 20 21  1  0  0  0
 20 26  1  0  0  0
 20 38  1  0  0  0
 21 22  1  0  0  0
 21 39  1  0  0  0
 21 40  1  0  0  0
 22 23  1  0  0  0
 22 41  1  0  0  0
 22 42  1  0  0  0
 23 24  2  0  0  0
 23 25  1  0  0  0
 26 27  1  0  0  0
 26 28  2  0  0  0
 29 30  1  0  0  0
 29 43  1  0  0  0
 29 44  1  0  0  0
 30 31  1  0  0  0
 30 45  1  0  0  0
 30 46  1  0  0  0
 31 47  1  0  0  0
 31 48  1  0  0  0
M  CHG  3   1   1  25  -1  27  -1
M  END
> <s_m_source_file>
../4zz1_ligand.sdf

> <i_m_source_file_index>
1

> <s_epik_input>
Tz1jMVtuSF1jKD1OL1tIXSlcW25IXWMoYzEyKU49QyhbQ0gyXTIpW0NIMl1bQ0gyXVtDSDJdYyhbY0hdczMpW2NIXWMzQyg9TylbTkhdW0NASF0oQyg9TylbT0hdKVtDSDJdW0NIMl1DKD1PKVtPSF0=

> <s_epik_cmdline>
J2VwaWtfYXBwJywgJy1pbWFlJywgJ2xpZ2FuZF9wcm8ubWFlJywgJy1vbWFlJywgJ2xpZ2FuZF9wcmVwLm1hZScsICctbXMnLCAnMScsICctcGgnLCAnNycsICctcGh0JywgJzAuNScsICctbnQn

> <r_lp_tautomer_probability>
1

> <r_epik_Ionization_Penalty>
  0.2914

> <r_epik_Ionization_Penalty_Charging>
  0.2527

> <r_epik_Ionization_Penalty_Neutral>
  0.0387

> <r_epik_State_Penalty>
 -0.0000

> <r_epik_Charging_Adjusted_Penalty>
0.252695586493623

> <i_epik_Tot_Q>
-1

> <i_epik_Tot_abs_Q>
3

> <s_epik_Chemistry_Notes>
This compound has an imine and may undergo hydrolysis.

$$$$
