4zz2_ligand
                    3D
 Schrodinger Suite 2020-3.
 48 50  0  0  1  0            999 V2000
   49.8180   11.0110   26.6430 N   0  0  0  0  0  0
   50.8700   11.1690   25.8560 C   0  0  0  0  0  0
   51.5040   12.3520   25.7390 N   0  0  0  0  0  0
   51.0970   13.4490   26.4030 C   0  0  0  0  0  0
   48.1930   13.3620   28.6800 C   0  0  0  0  0  0
   49.9580   13.3290   27.2620 C   0  0  0  0  0  0
   48.3070   12.1170   28.1980 N   0  0  0  0  0  0
   49.2070   14.1820   28.1260 C   0  0  0  0  0  0
   49.3320   12.0560   27.3510 C   0  0  3  0  0  0
   51.6990   14.5170   26.2720 O   0  0  0  0  0  0
   51.3530   10.0700   25.1370 N   0  0  0  0  0  0
   49.2810   11.3710   32.9680 C   0  0  0  0  0  0
   50.0990   10.8740   34.0160 C   0  0  0  0  0  0
   51.1130   11.6870   34.4210 C   0  0  0  0  0  0
   50.9840   13.0760   33.4410 S   0  0  0  0  0  0
   49.6340   12.6090   32.5180 C   0  0  0  0  0  0
   49.8830    9.5870   34.6240 C   0  0  0  0  0  0
   50.7560    9.0760   35.3600 O   0  0  0  0  0  0
   48.6570    8.8760   34.3830 N   0  0  0  0  0  0
   48.4340    7.5890   34.9810 C   0  0  1  0  0  0
   47.1980    7.6060   35.8030 C   0  0  0  0  0  0
   47.1960    8.7440   36.8140 C   0  0  0  0  0  0
   45.8930    8.7750   37.6510 C   0  0  0  0  0  0
   45.3810    7.6770   38.0730 O   0  0  0  0  0  0
   45.3110    9.9160   37.9230 O   0  5  0  0  0  0
   48.2720    6.5320   33.8830 C   0  0  0  0  0  0
   48.5640    5.2920   34.1480 O   0  5  0  0  0  0
   47.8480    6.8720   32.7190 O   0  0  0  0  0  0
   47.1190   13.7740   29.7200 C   0  0  0  0  0  0
   47.5410   13.0970   31.0850 C   0  0  0  0  0  0
   49.0060   13.4150   31.4180 C   0  0  0  0  0  0
   49.4862   15.2407   28.2322 H   0  0  0  0  0  0
   50.8498    9.0952   25.2185 H   0  0  0  0  0  0
   48.4413   10.8103   32.5574 H   0  0  0  0  0  0
   51.8478   11.4922   35.2022 H   0  0  0  0  0  0
   47.8874    9.3229   33.7365 H   0  0  0  0  0  0
   49.3043    7.4060   35.6284 H   0  0  0  0  0  0
   46.3234    7.7296   35.1474 H   0  0  0  0  0  0
   47.1116    6.6584   36.3548 H   0  0  0  0  0  0
   48.0443    8.6231   37.5038 H   0  0  0  0  0  0
   47.2873    9.7043   36.2853 H   0  0  0  0  0  0
   46.2805   14.4190   29.4186 H   0  0  0  0  0  0
   46.9016   13.4765   31.8956 H   0  0  0  0  0  0
   47.4231   12.0063   31.0052 H   0  0  0  0  0  0
   49.0281   14.4815   31.6864 H   0  0  0  0  0  0
   49.5664   13.2603   30.4842 H   0  0  0  0  0  0
   52.2358   10.1808   24.4902 H   0  0  0  0  0  0
   47.6037   11.3355   28.5213 H   0  0  0  0  0  0
  1  2  2  0  0  0
  1  9  1  0  0  0
  2  3  1  0  0  0
  2 11  1  0  0  0
  3  4  1  0  0  0
  4  6  1  0  0  0
  4 10  2  0  0  0
  5  7  1  0  0  0
  5  8  1  0  0  0
  5 29  2  0  0  0
  6  8  2  0  0  0
  6  9  1  0  0  0
  7  9  1  0  0  0
  7 48  1  0  0  0
  8 32  1  0  0  0
 11 33  1  0  0  0
 11 47  1  0  0  0
 12 13  1  0  0  0
 12 16  2  0  0  0
 12 34  1  0  0  0
 13 14  2  0  0  0
 13 17  1  0  0  0
 14 15  1  0  0  0
 14 35  1  0  0  0
 15 16  1  0  0  0
 16 31  1  0  0  0
 17 18  2  0  0  0
 17 19  1  0  0  0
 19 20  1  0  0  0
 19 36  1  0  0  0
 20 21  1  0  0  0
 20 26  1  0  0  0
 20 37  1  0  0  0
 21 22  1  0  0  0
 21 38  1  0  0  0
 21 39  1  0  0  0
 22 23  1  0  0  0
 22 40  1  0  0  0
 22 41  1  0  0  0
 23 24  2  0  0  0
 23 25  1  0  0  0
 26 27  1  0  0  0
 26 28  2  0  0  0
 29 30  1  0  0  0
 29 42  1  0  0  0
 30 31  1  0  0  0
 30 43  1  0  0  0
 30 44  1  0  0  0
 31 45  1  0  0  0
 31 46  1  0  0  0
M  CHG  2  25  -1  27  -1
M  END
> <s_m_source_file>
../4zz2_ligand.sdf

> <i_m_source_file_index>
1

> <s_epik_input>
Tz1DMVtOSF1DKD1OL1tIXSlcW05IXVtDSF0oQzE9MilOPUMoW0NIXTIpW0NIMl1bQ0gyXVtDSDJdYyhzW2NIXTMpW2NIXWMzQyg9TylbTkhdW0NASF0oQyg9TylbT0hdKVtDSDJdW0NIMl1DKD1PKVtPSF0=

> <s_epik_cmdline>
J2VwaWtfYXBwJywgJy1pbWFlJywgJ2xpZ2FuZF9wcm8ubWFlJywgJy1vbWFlJywgJ2xpZ2FuZF9wcmVwLm1hZScsICctbXMnLCAnMScsICctcGgnLCAnNycsICctcGh0JywgJzAuNScsICctbnQn

> <r_lp_tautomer_probability>
1

> <r_epik_Ionization_Penalty>
  0.0042

> <r_epik_Ionization_Penalty_Charging>
  0.0042

> <r_epik_Ionization_Penalty_Neutral>
  0.0000

> <r_epik_State_Penalty>
 -0.0000

> <r_epik_Charging_Adjusted_Penalty>
0.00416622360637084

> <i_epik_Tot_Q>
-2

> <i_epik_Tot_abs_Q>
2

> <s_epik_Chemistry_Notes>
This compound has an imine and may undergo hydrolysis.

$$$$
