4zz3_ligand
                    3D
 Schrodinger Suite 2020-3.
 50 52  0  0  1  0            999 V2000
   62.1970   48.2070   18.6850 C   0  0  0  0  0  0
   61.0110   48.9110   18.8520 C   0  0  0  0  0  0
   59.8670   48.5330   18.1590 C   0  0  0  0  0  0
   59.9370   47.4440   17.3000 C   0  0  0  0  0  0
   61.1170   46.7320   17.1240 C   0  0  0  0  0  0
   62.2570   47.1190   17.8210 C   0  0  0  0  0  0
   63.4070   48.6700   19.4680 C   0  0  0  0  0  0
   63.4080   48.5630   20.9790 C   0  0  0  0  0  0
   62.3130   47.6790   21.5400 C   0  0  0  0  0  0
   62.1410   46.3270   21.2800 C   0  0  0  0  0  0
   61.0620   45.9180   21.9630 N   0  3  0  0  0  0
   60.5400   46.9450   22.6480 C   0  0  0  0  0  0
   61.3020   48.0750   22.4060 C   0  0  0  0  0  0
   60.9450   49.2670   23.0190 C   0  0  0  0  0  0
   61.5940   50.2830   22.8290 O   0  0  0  0  0  0
   59.8750   49.3020   23.8250 N   0  3  0  0  0  0
   59.1520   48.1920   24.0430 C   0  0  0  0  0  0
   59.4800   47.0270   23.4620 N   0  0  0  0  0  0
   58.0210   48.2330   24.8980 N   0  0  0  0  0  0
   58.6530   47.0500   16.5490 C   0  0  0  0  0  0
   57.6690   47.7540   16.6490 O   0  0  0  0  0  0
   58.6620   45.8700   15.7620 N   0  0  0  0  0  0
   57.4700   45.5120   15.0800 C   0  0  1  0  0  0
   57.7440   44.9000   13.7220 C   0  0  0  0  0  0
   59.0230   44.1090   13.5680 C   0  0  0  0  0  0
   59.1360   43.1580   12.3960 C   0  0  0  0  0  0
   58.2000   43.0850   11.5580 O   0  0  0  0  0  0
   60.1640   42.4430   12.2640 O   0  5  0  0  0  0
   56.7810   44.4820   15.9500 C   0  0  0  0  0  0
   56.2460   44.8720   17.0220 O   0  5  0  0  0  0
   56.7480   43.2710   15.6070 O   0  0  0  0  0  0
   60.9775   49.7640   19.5298 H   0  0  0  0  0  0
   58.9333   49.0805   18.2872 H   0  0  0  0  0  0
   61.1492   45.8787   16.4466 H   0  0  0  0  0  0
   63.1913   46.5729   17.6907 H   0  0  0  0  0  0
   64.2888   48.0909   19.1566 H   0  0  0  0  0  0
   63.5827   49.7384   19.2737 H   0  0  0  0  0  0
   64.3668   48.1422   21.3161 H   0  0  0  0  0  0
   63.2719   49.5626   21.4175 H   0  0  0  0  0  0
   62.8395   45.8023   20.6116 H   0  0  0  0  0  0
   57.7335   49.1766   25.3849 H   0  0  0  0  0  0
   59.5582   45.2386   15.6716 H   0  0  0  0  0  0
   56.9052   46.4453   14.9390 H   0  0  0  0  0  0
   56.9336   44.2024   13.4639 H   0  0  0  0  0  0
   57.7973   45.6963   12.9650 H   0  0  0  0  0  0
   59.8708   44.8009   13.4562 H   0  0  0  0  0  0
   59.1762   43.4824   14.4590 H   0  0  0  0  0  0
   57.4314   47.3212   25.0742 H   0  0  0  0  0  0
   60.7368   44.8690   21.9009 H   0  0  0  0  0  0
   59.5843   50.2442   24.3127 H   0  0  0  0  0  0
  1  2  2  0  0  0
  1  6  1  0  0  0
  1  7  1  0  0  0
  2  3  1  0  0  0
  2 32  1  0  0  0
  3  4  2  0  0  0
  3 33  1  0  0  0
  4  5  1  0  0  0
  4 20  1  0  0  0
  5  6  2  0  0  0
  5 34  1  0  0  0
  6 35  1  0  0  0
  7  8  1  0  0  0
  7 36  1  0  0  0
  7 37  1  0  0  0
  8  9  1  0  0  0
  8 38  1  0  0  0
  8 39  1  0  0  0
  9 10  2  0  0  0
  9 13  1  0  0  0
 10 11  1  0  0  0
 10 40  1  0  0  0
 11 12  1  0  0  0
 11 49  1  0  0  0
 12 13  2  0  0  0
 12 18  1  0  0  0
 13 14  1  0  0  0
 14 15  2  0  0  0
 14 16  1  0  0  0
 16 17  1  0  0  0
 16 50  1  0  0  0
 17 18  2  0  0  0
 17 19  1  0  0  0
 19 41  1  0  0  0
 19 48  1  0  0  0
 20 21  2  0  0  0
 20 22  1  0  0  0
 22 23  1  0  0  0
 22 42  1  0  0  0
 23 24  1  0  0  0
 23 29  1  0  0  0
 23 43  1  0  0  0
 24 25  1  0  0  0
 24 44  1  0  0  0
 24 45  1  0  0  0
 25 26  1  0  0  0
 25 46  1  0  0  0
 25 47  1  0  0  0
 26 27  2  0  0  0
 26 28  1  0  0  0
 29 30  1  0  0  0
 29 31  2  0  0  0
M  CHG  4  11   1  16   1  28  -1  30  -1
M  END
> <s_m_source_file>
../4zz3_ligand.sdf

> <i_m_source_file_index>
1

> <s_epik_input>
W0hdL049YyhbbkhdMSlcW25IXWMoPU8pYyhjMTIpYyhbY0hdW25IXTIpW0NIMl1bQ0gyXWMzW2NIXVtjSF1jKFtjSF1bY0hdMylDKD1PKVtOSF1bQ0BIXShDKD1PKVtPSF0pW0NIMl1bQ0gyXUMoPU8pW09IXQ==

> <s_epik_cmdline>
J2VwaWtfYXBwJywgJy1pbWFlJywgJ2xpZ2FuZF9wcm8ubWFlJywgJy1vbWFlJywgJ2xpZ2FuZF9wcmVwLm1hZScsICctbXMnLCAnMScsICctcGgnLCAnNycsICctcGh0JywgJzAuNScsICctbnQn

> <r_epik_Ionization_Penalty>
  3.9938

> <r_epik_Ionization_Penalty_Charging>
  0.0086

> <r_epik_Ionization_Penalty_Neutral>
  3.9852

> <r_epik_State_Penalty>
  0.0212

> <r_epik_Charging_Adjusted_Penalty>
0.0298395721091232

> <i_epik_Tot_Q>
0

> <i_epik_Tot_abs_Q>
4

> <s_epik_Chemistry_Notes>
This compound has an imine and may undergo hydrolysis.

$$$$
