4zzd_ligand
                    3D
 Schrodinger Suite 2020-3.
 47 49  0  0  1  0            999 V2000
    1.6490    3.6160   88.9580 N   0  0  0  0  0  0
    0.5140    2.9630   88.5960 C   0  0  0  0  0  0
   -0.3010    3.5400   87.8410 O   0  0  0  0  0  0
    0.2310    1.7170   89.0170 N   0  0  0  0  0  0
    1.0500    1.0290   89.8270 C   0  0  0  0  0  0
    0.7600   -0.1290   90.2020 O   0  0  0  0  0  0
    2.3150    1.6720   90.2710 C   0  0  0  0  0  0
    3.1950    1.0460   91.0880 N   0  0  0  0  0  0
    4.3390    1.6570   91.4750 C   0  0  0  0  0  0
    5.2260    0.9890   92.3140 C   0  0  0  0  0  0
    6.4070    1.6060   92.7190 C   0  0  0  0  0  0
    7.3640    0.8760   93.6280 C   0  0  0  0  0  0
    6.7220    2.9860   92.2540 C   0  0  0  0  0  0
    7.9980    3.6580   92.6920 C   0  0  0  0  0  0
    5.8370    3.6570   91.4140 C   0  0  0  0  0  0
    4.6560    3.0400   91.0070 C   0  0  0  0  0  0
    3.7550    3.7090   90.1500 N   0  0  0  0  0  0
    2.5670    3.0470   89.7740 C   0  0  0  0  0  0
    4.0170    5.0730   89.6780 C   0  0  0  0  0  0
    4.3410    5.0730   88.1890 C   0  0  2  0  0  0
    5.7550    4.9370   88.0060 O   0  0  0  0  0  0
    3.8600    6.3660   87.5370 C   0  0  2  0  0  0
    4.4880    7.4760   88.1870 O   0  0  0  0  0  0
    2.3420    6.5190   87.6270 C   0  0  2  0  0  0
    1.6910    5.2860   87.2890 O   0  0  0  0  0  0
    1.8370    7.6390   86.7200 C   0  0  0  0  0  0
    2.8510    7.9910   85.7690 O   0  0  0  0  0  0
   -0.7003    1.2266   88.6972 H   0  0  0  0  0  0
    4.9956   -0.0203   92.6552 H   0  0  0  0  0  0
    6.9609   -0.1208   93.8603 H   0  0  0  0  0  0
    7.4916    1.4462   94.5600 H   0  0  0  0  0  0
    8.3374    0.7702   93.1266 H   0  0  0  0  0  0
    8.5638    2.9791   93.3469 H   0  0  0  0  0  0
    7.7569    4.5804   93.2406 H   0  0  0  0  0  0
    8.6044    3.9049   91.8081 H   0  0  0  0  0  0
    6.0686    4.6665   91.0744 H   0  0  0  0  0  0
    3.1276    5.6973   89.8489 H   0  0  0  0  0  0
    4.8715    5.4937   90.2284 H   0  0  0  0  0  0
    3.8828    4.2024   87.6969 H   0  0  0  0  0  0
    6.2802    4.0597   88.4117 H   0  0  0  0  0  0
    4.1700    6.3887   86.4818 H   0  0  0  0  0  0
    5.5854    7.5420   88.2254 H   0  0  0  0  0  0
    2.0593    6.7267   88.6696 H   0  0  0  0  0  0
    1.9329    4.3666   87.8424 H   0  0  0  0  0  0
    0.9386    7.2995   86.1837 H   0  0  0  0  0  0
    1.5891    8.5206   87.3293 H   0  0  0  0  0  0
    2.6613    8.7844   85.0311 H   0  0  0  0  0  0
  1  2  1  0  0  0
  1 18  2  0  0  0
  2  3  2  0  0  0
  2  4  1  0  0  0
  4  5  1  0  0  0
  4 28  1  0  0  0
  5  6  2  0  0  0
  5  7  1  0  0  0
  7  8  2  0  0  0
  7 18  1  0  0  0
  8  9  1  0  0  0
  9 10  2  0  0  0
  9 16  1  0  0  0
 10 11  1  0  0  0
 10 29  1  0  0  0
 11 12  1  0  0  0
 11 13  2  0  0  0
 12 30  1  0  0  0
 12 31  1  0  0  0
 12 32  1  0  0  0
 13 14  1  0  0  0
 13 15  1  0  0  0
 14 33  1  0  0  0
 14 34  1  0  0  0
 14 35  1  0  0  0
 15 16  2  0  0  0
 15 36  1  0  0  0
 16 17  1  0  0  0
 17 18  1  0  0  0
 17 19  1  0  0  0
 19 20  1  0  0  0
 19 37  1  0  0  0
 19 38  1  0  0  0
 20 21  1  0  0  0
 20 22  1  0  0  0
 20 39  1  0  0  0
 21 40  1  0  0  0
 22 23  1  0  0  0
 22 24  1  0  0  0
 22 41  1  0  0  0
 23 42  1  0  0  0
 24 25  1  0  0  0
 24 26  1  0  0  0
 24 43  1  0  0  0
 25 44  1  0  0  0
 26 27  1  0  0  0
 26 45  1  0  0  0
 26 46  1  0  0  0
 27 47  1  0  0  0
M  END
> <s_m_source_file>
../4zzd_ligand.sdf

> <i_m_source_file_index>
1

> <s_epik_input>
Tz1jMVtuSF1jKD1PKW5jKGMxMiluKGMzYyhuMilbY0hdYyhbQ0gzXSljKFtDSDNdKVtjSF0zKVtDSDJdW0NASF0oW09IXSlbQ0BIXShbT0hdKVtDQEhdKFtPSF0pW0NIMl1bT0hd

> <s_epik_cmdline>
J2VwaWtfYXBwJywgJy1pbWFlJywgJ2xpZ2FuZF9wcm8ubWFlJywgJy1vbWFlJywgJ2xpZ2FuZF9wcmVwLm1hZScsICctbXMnLCAnMScsICctcGgnLCAnNycsICctcGh0JywgJzAuNScsICctbnQn

> <r_lp_tautomer_probability>
1

> <r_epik_Ionization_Penalty>
  0.0006

> <r_epik_Ionization_Penalty_Charging>
  0.0006

> <r_epik_Ionization_Penalty_Neutral>
  0.0000

> <r_epik_State_Penalty>
 -0.0000

> <r_epik_Charging_Adjusted_Penalty>
0.000566488079864488

> <i_epik_Tot_Q>
0

> <i_epik_Tot_abs_Q>
0

$$$$
