4zzz_ligand
                    3D
 Schrodinger Suite 2020-3.
 34 35  0  0  1  0            999 V2000
   62.8020    6.6400    9.3510 C   0  0  0  0  0  0
   61.8780    6.2450   10.2280 N   0  0  0  0  0  0
   63.7250    5.6810    9.1240 C   0  0  0  0  0  0
   63.3280    4.6380    9.9090 C   0  0  0  0  0  0
   64.8520    5.5880    8.3210 C   0  0  0  0  0  0
   62.2010    4.9840   10.5800 C   0  0  0  0  0  0
   65.3700    6.5490    7.4100 C   0  0  0  0  0  0
   62.7250    7.8790    8.8350 O   0  0  0  0  0  0
   66.2530    6.2480    6.5850 O   0  0  0  0  0  0
   64.8370    7.7840    7.4100 N   0  0  0  0  0  0
   60.6770    7.0400   10.7410 C   0  0  0  0  0  0
   64.0230    3.4720    9.9640 C   0  0  0  0  0  0
   65.5880    4.3820    8.3670 C   0  0  0  0  0  0
   60.9170    7.6670   12.1330 C   0  0  0  0  0  0
   65.1650    3.3300    9.1750 C   0  0  0  0  0  0
   61.9000    9.7880   11.6040 O   0  0  0  0  0  0
   62.1860    8.4780   12.1490 C   0  0  0  0  0  0
   62.9840   10.3140   10.7940 C   0  0  0  0  0  0
   62.3758    4.9396   11.6651 H   0  0  0  0  0  0
   61.3766    4.3063   10.3134 H   0  0  0  0  0  0
   64.0572    8.0465    8.1401 H   0  0  0  0  0  0
   65.1809    8.5315    6.6799 H   0  0  0  0  0  0
   60.4526    7.8580   10.0406 H   0  0  0  0  0  0
   59.8041    6.3754   10.8203 H   0  0  0  0  0  0
   63.6940    2.6609   10.6136 H   0  0  0  0  0  0
   66.4915    4.2751    7.7667 H   0  0  0  0  0  0
   60.0742    8.3262   12.3885 H   0  0  0  0  0  0
   60.9993    6.8688   12.8854 H   0  0  0  0  0  0
   65.7259    2.3956    9.1912 H   0  0  0  0  0  0
   62.5478    8.5723   13.1835 H   0  0  0  0  0  0
   62.9501    7.9755   11.5377 H   0  0  0  0  0  0
   62.7067   11.3071   10.4107 H   0  0  0  0  0  0
   63.1737    9.6349    9.9497 H   0  0  0  0  0  0
   63.8928   10.3986   11.4080 H   0  0  0  0  0  0
  1  2  1  0  0  0
  1  3  1  0  0  0
  1  8  2  0  0  0
  2  6  1  0  0  0
  2 11  1  0  0  0
  3  4  2  0  0  0
  3  5  1  0  0  0
  4  6  1  0  0  0
  4 12  1  0  0  0
  5  7  1  0  0  0
  5 13  2  0  0  0
  6 19  1  0  0  0
  6 20  1  0  0  0
  7  9  2  0  0  0
  7 10  1  0  0  0
 10 21  1  0  0  0
 10 22  1  0  0  0
 11 14  1  0  0  0
 11 23  1  0  0  0
 11 24  1  0  0  0
 12 15  2  0  0  0
 12 25  1  0  0  0
 13 15  1  0  0  0
 13 26  1  0  0  0
 14 17  1  0  0  0
 14 27  1  0  0  0
 14 28  1  0  0  0
 15 29  1  0  0  0
 16 17  1  0  0  0
 16 18  1  0  0  0
 17 30  1  0  0  0
 17 31  1  0  0  0
 18 32  1  0  0  0
 18 33  1  0  0  0
 18 34  1  0  0  0
M  END
> <s_m_source_file>
../4zzz_ligand.sdf

> <i_m_source_file_index>
1

> <s_epik_input>
W0NIM11PW0NIMl1bQ0gyXVtDSDJdTihDMT1PKVtDSDJdYyhjMTIpW2NIXVtjSF1bY0hdYzJDKD1PKVtOSDJd

> <s_epik_cmdline>
J2VwaWtfYXBwJywgJy1pbWFlJywgJ2xpZ2FuZF9wcm8ubWFlJywgJy1vbWFlJywgJ2xpZ2FuZF9wcmVwLm1hZScsICctbXMnLCAnMScsICctcGgnLCAnNycsICctcGh0JywgJzAuNScsICctbnQn

> <r_lp_tautomer_probability>
1

> <r_epik_Ionization_Penalty>
  0.0000

> <r_epik_Ionization_Penalty_Charging>
  0.0000

> <r_epik_Ionization_Penalty_Neutral>
  0.0000

> <r_epik_State_Penalty>
 -0.0000

> <r_epik_Charging_Adjusted_Penalty>
0

> <i_epik_Tot_Q>
0

> <i_epik_Tot_abs_Q>
0

$$$$
