5a00_ligand
                    3D
 Schrodinger Suite 2020-3.
 53 56  0  0  1  0            999 V2000
   20.1850   11.3340   75.8630 C   0  0  0  0  0  0
   19.3970   10.0370   76.1260 C   0  0  0  0  0  0
   17.9160   10.2220   75.7380 C   0  0  0  0  0  0
   17.2440    9.1970   76.1800 F   0  0  0  0  0  0
   17.8450   10.3630   74.3550 F   0  0  0  0  0  0
   17.2840   11.4470   76.4210 C   0  0  0  0  0  0
   18.0790   12.6960   76.0770 C   0  0  0  0  0  0
   19.5010   12.4900   76.6140 C   0  0  0  0  0  0
   20.3040   13.7220   76.6470 N   0  3  1  0  0  0
   20.8430   14.1880   75.3600 C   0  0  0  0  0  0
   21.9000   15.2440   75.6410 C   0  0  0  0  0  0
   19.5570   14.8090   77.2960 C   0  0  0  0  0  0
   20.4940   15.9330   77.6810 C   0  0  0  0  0  0
   21.3100   16.4100   76.4710 C   0  0  1  0  0  0
   22.3850   17.3330   76.9290 N   0  0  0  0  0  0
   23.1810   17.2470   78.1550 C   0  0  0  0  0  0
   22.8300   18.3990   76.2770 C   0  0  0  0  0  0
   22.3380   18.7640   75.2110 O   0  0  0  0  0  0
   23.7860   19.0600   76.9520 C   0  0  0  0  0  0
   23.9980   18.3680   78.1040 C   0  0  0  0  0  0
   24.8830   18.7700   79.0160 C   0  0  0  0  0  0
   25.6220   19.9190   78.7980 C   0  0  0  0  0  0
   26.4660   20.3110   79.6440 F   0  0  0  0  0  0
   25.4200   20.6370   77.6320 C   0  0  0  0  0  0
   24.4820   20.2060   76.6960 C   0  0  0  0  0  0
   24.3770   21.0190   75.5450 C   0  0  0  0  0  0
   25.3110   21.7480   75.2190 O   0  0  0  0  0  0
   23.2520   20.9880   74.8430 N   0  0  0  0  0  0
   21.2177   11.2149   76.2226 H   0  0  0  0  0  0
   20.1947   11.5446   74.7834 H   0  0  0  0  0  0
   19.8255    9.2198   75.5272 H   0  0  0  0  0  0
   19.4589    9.7805   77.1939 H   0  0  0  0  0  0
   16.2480   11.5678   76.0716 H   0  0  0  0  0  0
   17.2886   11.3019   77.5114 H   0  0  0  0  0  0
   18.0933   12.8325   74.9856 H   0  0  0  0  0  0
   17.6096   13.5713   76.5498 H   0  0  0  0  0  0
   19.4455   12.2491   77.6859 H   0  0  0  0  0  0
   21.1900   13.4407   77.2351 H   0  0  0  0  0  0
   21.2904   13.3398   74.8212 H   0  0  0  0  0  0
   20.0303   14.6183   74.7563 H   0  0  0  0  0  0
   22.7287   14.7921   76.2059 H   0  0  0  0  0  0
   22.2802   15.6445   74.6897 H   0  0  0  0  0  0
   18.7969   15.1969   76.6019 H   0  0  0  0  0  0
   19.0647   14.4257   78.2019 H   0  0  0  0  0  0
   19.9099   16.7809   78.0682 H   0  0  0  0  0  0
   21.1889   15.5813   78.4578 H   0  0  0  0  0  0
   20.6397   16.9784   75.8094 H   0  0  0  0  0  0
   22.5121   17.2609   79.0282 H   0  0  0  0  0  0
   23.7599   16.3117   78.1515 H   0  0  0  0  0  0
   25.0241   18.1950   79.9312 H   0  0  0  0  0  0
   25.9968   21.5429   77.4453 H   0  0  0  0  0  0
   22.4284   20.3279   75.1528 H   0  0  0  0  0  0
   23.1426   21.6224   73.9510 H   0  0  0  0  0  0
  1  2  1  0  0  0
  1  8  1  0  0  0
  1 29  1  0  0  0
  1 30  1  0  0  0
  2  3  1  0  0  0
  2 31  1  0  0  0
  2 32  1  0  0  0
  3  4  1  0  0  0
  3  5  1  0  0  0
  3  6  1  0  0  0
  6  7  1  0  0  0
  6 33  1  0  0  0
  6 34  1  0  0  0
  7  8  1  0  0  0
  7 35  1  0  0  0
  7 36  1  0  0  0
  8  9  1  0  0  0
  8 37  1  0  0  0
  9 10  1  0  0  0
  9 12  1  0  0  0
  9 38  1  0  0  0
 10 11  1  0  0  0
 10 39  1  0  0  0
 10 40  1  0  0  0
 11 14  1  0  0  0
 11 41  1  0  0  0
 11 42  1  0  0  0
 12 13  1  0  0  0
 12 43  1  0  0  0
 12 44  1  0  0  0
 13 14  1  0  0  0
 13 45  1  0  0  0
 13 46  1  0  0  0
 14 15  1  0  0  0
 14 47  1  0  0  0
 15 16  1  0  0  0
 15 17  1  0  0  0
 16 20  1  0  0  0
 16 48  1  0  0  0
 16 49  1  0  0  0
 17 18  2  0  0  0
 17 19  1  0  0  0
 19 20  2  0  0  0
 19 25  1  0  0  0
 20 21  1  0  0  0
 21 22  2  0  0  0
 21 50  1  0  0  0
 22 23  1  0  0  0
 22 24  1  0  0  0
 24 25  2  0  0  0
 24 51  1  0  0  0
 25 26  1  0  0  0
 26 27  2  0  0  0
 26 28  1  0  0  0
 28 52  1  0  0  0
 28 53  1  0  0  0
M  CHG  1   9   1
M  END
> <s_m_source_file>
../5a00_ligand.sdf

> <i_m_source_file_index>
1

> <s_epik_input>
RkMxKEYpW0NIMl1bQ0gyXVtDSF0oW0NIMl1bQ0gyXTEpW05ASCtdMltDSDJdW0NIMl1bQ0BASF0oW0NIMl1bQ0gyXTIpTihDMz1PKVtDSDJdYyhjMzQpW2NIXWMoRilbY0hdYzRDKD1PKVtOSDJd

> <s_epik_cmdline>
J2VwaWtfYXBwJywgJy1pbWFlJywgJ2xpZ2FuZF9wcm8ubWFlJywgJy1vbWFlJywgJ2xpZ2FuZF9wcmVwLm1hZScsICctbXMnLCAnMScsICctcGgnLCAnNycsICctcGh0JywgJzAuNScsICctbnQn

> <r_epik_Ionization_Penalty>
  0.0131

> <r_epik_Ionization_Penalty_Charging>
  0.0131

> <r_epik_Ionization_Penalty_Neutral>
  0.0000

> <r_epik_State_Penalty>
  0.0102

> <r_epik_Charging_Adjusted_Penalty>
0.0233476311345136

> <i_epik_Tot_Q>
1

> <i_epik_Tot_abs_Q>
1

$$$$
