5a0e_ligand
                    3D
 Schrodinger Suite 2020-3.
218221  0  0  1  0            999 V2000
   -8.4670    0.4320   26.9420 N   0  0  0  0  0  0
   -7.9990    0.2380   25.5680 C   0  0  3  0  0  0
   -8.8770    0.9990   24.6180 C   0  0  0  0  0  0
   -8.0020   -1.2380   25.3150 C   0  0  0  0  0  0
   -8.9840   -1.9200   25.6530 O   0  0  0  0  0  0
   -6.9210   -1.7510   24.6990 N   0  0  0  0  0  0
   -5.7320   -0.9600   24.2320 C   0  0  0  0  0  0
   -7.0010   -3.1600   24.2500 C   0  0  1  0  0  0
   -7.1360   -3.2750   22.7220 C   0  0  0  0  0  0
   -8.4250   -2.6830   22.1510 C   0  0  0  0  0  0
   -9.6910   -3.3570   22.6440 C   0  0  0  0  0  0
   -8.3370   -2.6920   20.5620 C   0  0  0  0  0  0
   -5.7520   -3.8400   24.7750 C   0  0  0  0  0  0
   -4.8510   -4.1900   23.9870 O   0  0  0  0  0  0
   -5.6240   -4.0540   26.1430 N   0  0  0  0  0  0
   -6.6180   -3.5970   27.1200 C   0  0  0  0  0  0
   -4.4310   -4.7190   26.5920 C   0  0  1  0  0  0
   -3.7120   -3.9230   27.6980 C   0  0  0  0  0  0
   -3.3480   -2.5340   27.1670 C   0  0  0  0  0  0
   -2.4380   -2.4780   25.9460 C   0  0  0  0  0  0
   -2.6240   -1.8240   28.3350 C   0  0  0  0  0  0
   -4.7200   -6.1440   27.1290 C   0  0  0  0  0  0
   -5.9050   -6.4460   27.2850 O   0  0  0  0  0  0
   -3.7130   -7.0020   27.3390 N   0  0  0  0  0  0
   -2.3110   -6.7560   26.9890 C   0  0  0  0  0  0
   -4.0170   -8.3540   27.8550 C   0  0  1  0  0  0
   -3.7520   -9.4770   26.8290 C   0  0  0  0  0  0
   -4.4420  -10.7180   27.3760 C   0  0  0  0  0  0
   -4.2830   -9.1090   25.4520 C   0  0  0  0  0  0
   -3.2560   -8.6110   29.1410 C   0  0  0  0  0  0
   -2.1620   -9.1730   29.1120 O   0  0  0  0  0  0
   -3.5530   -9.2240   32.5090 C   0  0  0  0  0  0
   -3.7810   -8.1470   30.2820 N   0  0  0  0  0  0
   -4.6770   -9.7070   32.3470 O   0  0  0  0  0  0
   -2.9720   -8.2290   31.4800 C   0  0  1  0  0  0
   -2.6750   -6.8530   32.1640 C   0  0  2  0  0  0
   -0.7710   -4.4600   32.6950 C   0  0  0  0  0  0
    0.4640   -4.0980   34.7470 C   0  0  0  0  0  0
   -5.1750   -7.6110   30.3580 C   0  0  0  0  0  0
   -0.7840   -4.1810   33.8670 C   0  0  0  0  0  0
    1.8410   -3.9840   34.1500 C   0  0  0  0  0  0
    3.4290   -2.4360   29.9560 C   0  0  0  0  0  0
    4.7420   -2.0980   30.2660 C   0  0  0  0  0  0
    2.5280   -2.5940   31.0610 C   0  0  0  0  0  0
    6.8500   -1.5300   33.1470 C   0  0  0  0  0  0
    5.9790   -1.8170   34.1700 C   0  0  0  0  0  0
    6.5020   -1.5760   31.8280 C   0  0  0  0  0  0
    4.6440   -2.1310   33.9410 C   0  0  0  0  0  0
    1.8990   -2.6600   33.4910 C   0  0  0  0  0  0
    5.1430   -1.9500   31.5940 C   0  0  0  0  0  0
    4.2600   -2.2500   32.6000 C   0  0  0  0  0  0
    2.9250   -2.4650   32.3480 N   0  0  0  0  0  0
   -0.9180   -6.3860   30.4310 C   0  0  0  0  0  0
   -1.9570   -4.5220   31.7510 C   0  0  0  0  0  0
   -3.8830   -6.4330   32.7840 O   0  0  0  0  0  0
   -2.1760   -5.8590   31.1250 C   0  0  2  0  0  0
   -2.7350   -9.4580   33.5310 N   0  0  0  0  0  0
   -3.0040  -10.4930   34.5550 C   0  0  2  0  0  0
   -3.0460   -9.8340   35.9340 C   0  0  0  0  0  0
   -1.9680   -9.8310   36.6050 O   0  0  0  0  0  0
   -1.9390  -11.5300   34.4770 C   0  0  0  0  0  0
   -1.8930  -12.2330   33.1690 C   0  0  0  0  0  0
   -4.1500   -9.1410   36.3010 N   0  0  0  0  0  0
   -4.2060   -8.4600   37.6290 C   0  0  0  0  0  0
   -4.5980   -7.0290   37.5150 C   0  0  0  0  0  0
   -5.7520   -6.7260   37.9490 O   0  0  0  0  0  0
   -5.3550   -8.9520   35.5050 C   0  0  0  0  0  0
   -3.8520   -6.1430   36.9890 N   0  0  0  0  0  0
   -2.5500   -6.5090   36.3620 C   0  0  0  0  0  0
   -4.3560   -4.7410   36.8320 C   0  0  1  0  0  0
   -3.3660   -3.6690   37.1390 C   0  0  0  0  0  0
   -2.7770   -3.8080   38.5250 C   0  0  0  0  0  0
   -3.8550   -3.9350   39.6260 C   0  0  0  0  0  0
   -1.8390   -2.6400   38.8260 C   0  0  0  0  0  0
   -4.9450   -4.6220   35.4600 C   0  0  0  0  0  0
   -4.1940   -4.4200   34.4960 O   0  0  0  0  0  0
   -6.2640   -4.7550   35.3110 N   0  0  0  0  0  0
   -6.8510   -4.7540   34.0440 C   0  0  2  0  0  0
   -7.0000   -3.3540   33.4640 C   0  0  0  0  0  0
   -7.4770   -2.4680   34.2350 O   0  0  0  0  0  0
   -8.2430   -5.3250   34.1950 C   0  0  0  0  0  0
   -8.9830   -5.3040   32.8680 C   0  0  0  0  0  0
   -8.2840   -6.6920   34.7760 C   0  0  0  0  0  0
   -6.5140   -2.9830   32.3110 N   0  0  0  0  0  0
   -5.9660   -3.9920   31.3640 C   0  0  0  0  0  0
   -6.3980   -1.5490   31.9430 C   0  0  1  0  0  0
   -4.9600   -1.0930   31.5770 C   0  0  0  0  0  0
   -4.0020   -1.4720   32.7420 C   0  0  0  0  0  0
   -4.3560   -0.8850   34.0460 C   0  0  0  0  0  0
   -2.5750   -1.1380   32.3440 C   0  0  0  0  0  0
   -7.3450   -1.2810   30.7300 C   0  0  0  0  0  0
   -7.9510   -2.1850   30.1480 O   0  0  0  0  0  0
   -7.5180    0.0020   30.4380 N   0  0  0  0  0  0
   -8.3160    0.4460   29.3320 C   0  0  2  0  0  0
   -7.6740    0.2040   27.9750 C   0  0  0  0  0  0
   -6.5650   -0.2120   27.8600 O   0  0  0  0  0  0
   -8.6590    1.9360   29.5330 C   0  0  0  0  0  0
   -8.2450    0.4170   26.9530 O   0  0  0  0  0  0
   -8.5816    0.7711   23.5832 H   0  0  0  0  0  0
   -8.7671    2.0780   24.8015 H   0  0  0  0  0  0
   -9.9258    0.7057   24.7731 H   0  0  0  0  0  0
   -5.7920    0.0629   24.6322 H   0  0  0  0  0  0
   -5.7246   -0.9238   23.1326 H   0  0  0  0  0  0
   -4.8090   -1.4400   24.5893 H   0  0  0  0  0  0
   -7.9053   -3.6250   24.6696 H   0  0  0  0  0  0
   -6.3009   -2.7462   22.2393 H   0  0  0  0  0  0
   -7.1157   -4.3356   22.4309 H   0  0  0  0  0  0
   -8.5133   -1.6691   22.5685 H   0  0  0  0  0  0
   -9.7159   -3.3311   23.7434 H   0  0  0  0  0  0
   -9.7072   -4.4022   22.3014 H   0  0  0  0  0  0
  -10.5681   -2.8266   22.2448 H   0  0  0  0  0  0
   -7.4083   -2.1960   20.2434 H   0  0  0  0  0  0
   -9.2014   -2.1553   20.1439 H   0  0  0  0  0  0
   -8.3405   -3.7309   20.2005 H   0  0  0  0  0  0
   -7.4550   -3.1152   26.5935 H   0  0  0  0  0  0
   -6.1522   -2.8747   27.8065 H   0  0  0  0  0  0
   -6.9922   -4.4584   27.6927 H   0  0  0  0  0  0
   -3.8389   -4.7469   25.6654 H   0  0  0  0  0  0
   -4.3771   -3.8217   28.5683 H   0  0  0  0  0  0
   -2.7964   -4.4547   27.9962 H   0  0  0  0  0  0
   -4.2836   -2.0750   26.8149 H   0  0  0  0  0  0
   -2.9304   -2.9774   25.0985 H   0  0  0  0  0  0
   -1.4899   -2.9880   26.1717 H   0  0  0  0  0  0
   -2.2369   -1.4281   25.6865 H   0  0  0  0  0  0
   -3.2610   -1.8503   29.2314 H   0  0  0  0  0  0
   -2.4216   -0.7785   28.0595 H   0  0  0  0  0  0
   -1.6746   -2.3384   28.5447 H   0  0  0  0  0  0
   -2.2008   -5.7260   26.6190 H   0  0  0  0  0  0
   -1.9993   -7.4624   26.2055 H   0  0  0  0  0  0
   -1.6809   -6.8950   27.8799 H   0  0  0  0  0  0
   -5.0969   -8.3313   28.0629 H   0  0  0  0  0  0
   -2.6763   -9.6580   26.6871 H   0  0  0  0  0  0
   -4.0354  -10.9554   28.3701 H   0  0  0  0  0  0
   -4.2664  -11.5648   26.6962 H   0  0  0  0  0  0
   -5.5229  -10.5308   27.4571 H   0  0  0  0  0  0
   -3.7643   -8.2102   25.0872 H   0  0  0  0  0  0
   -5.3626   -8.9084   25.5169 H   0  0  0  0  0  0
   -4.1061   -9.9423   24.7561 H   0  0  0  0  0  0
   -2.0428   -8.6226   31.0422 H   0  0  0  0  0  0
   -1.9340   -6.8810   32.9765 H   0  0  0  0  0  0
    0.1793   -4.7066   32.1988 H   0  0  0  0  0  0
    0.3975   -3.2115   35.3948 H   0  0  0  0  0  0
    0.5347   -5.0023   35.3692 H   0  0  0  0  0  0
   -5.6287   -7.6259   29.3560 H   0  0  0  0  0  0
   -5.1505   -6.5776   30.7341 H   0  0  0  0  0  0
   -5.7712   -8.2353   31.0398 H   0  0  0  0  0  0
   -1.7380   -3.9657   34.3706 H   0  0  0  0  0  0
    2.5941   -4.0614   34.9480 H   0  0  0  0  0  0
    1.9934   -4.7946   33.4221 H   0  0  0  0  0  0
    3.1283   -2.5683   28.9062 H   0  0  0  0  0  0
    5.4753   -1.9448   29.4605 H   0  0  0  0  0  0
    1.7195   -1.8521   30.9838 H   0  0  0  0  0  0
    2.0992   -3.6068   31.0426 H   0  0  0  0  0  0
    7.8724   -1.2510   33.4020 H   0  0  0  0  0  0
    6.3470   -1.7979   35.1958 H   0  0  0  0  0  0
    7.2003   -1.3472   31.0229 H   0  0  0  0  0  0
    3.9374   -2.2761   34.7582 H   0  0  0  0  0  0
    0.9215   -2.4310   33.0415 H   0  0  0  0  0  0
    2.1493   -1.8903   34.2359 H   0  0  0  0  0  0
   -1.1292   -7.3700   29.9869 H   0  0  0  0  0  0
   -0.1063   -6.4825   31.1671 H   0  0  0  0  0  0
   -0.6143   -5.6843   29.6402 H   0  0  0  0  0  0
   -2.8762   -4.2699   32.3001 H   0  0  0  0  0  0
   -1.8110   -3.8034   30.9310 H   0  0  0  0  0  0
   -4.3525   -7.0610   33.5555 H   0  0  0  0  0  0
   -2.9497   -5.7134   30.3568 H   0  0  0  0  0  0
   -1.8255   -8.8428   33.5965 H   0  0  0  0  0  0
   -3.9671  -10.9827   34.3485 H   0  0  0  0  0  0
   -0.9570  -11.0596   34.6333 H   0  0  0  0  0  0
   -2.1094  -12.2898   35.2540 H   0  0  0  0  0  0
   -1.0868  -12.9812   33.1830 H   0  0  0  0  0  0
   -1.7029  -11.5040   32.3675 H   0  0  0  0  0  0
   -2.8553  -12.7343   32.9881 H   0  0  0  0  0  0
   -4.9443   -8.9650   38.2692 H   0  0  0  0  0  0
   -3.2158   -8.5045   38.1060 H   0  0  0  0  0  0
   -5.2462   -9.4774   34.5447 H   0  0  0  0  0  0
   -5.5078   -7.8784   35.3204 H   0  0  0  0  0  0
   -6.2210   -9.3575   36.0488 H   0  0  0  0  0  0
   -2.3271   -7.5659   36.5700 H   0  0  0  0  0  0
   -1.7519   -5.8771   36.7787 H   0  0  0  0  0  0
   -2.6103   -6.3541   35.2746 H   0  0  0  0  0  0
   -5.1222   -4.5624   37.6008 H   0  0  0  0  0  0
   -2.5406   -3.7134   36.4132 H   0  0  0  0  0  0
   -3.8575   -2.6869   37.0757 H   0  0  0  0  0  0
   -2.1989   -4.7438   38.5123 H   0  0  0  0  0  0
   -4.5198   -4.7797   39.3925 H   0  0  0  0  0  0
   -4.4436   -3.0069   39.6716 H   0  0  0  0  0  0
   -3.3685   -4.1088   40.5971 H   0  0  0  0  0  0
   -1.0801   -2.5655   38.0332 H   0  0  0  0  0  0
   -1.3433   -2.8078   39.7935 H   0  0  0  0  0  0
   -2.4184   -1.7059   38.8680 H   0  0  0  0  0  0
   -6.8913   -4.8668   36.2077 H   0  0  0  0  0  0
   -6.1587   -5.3548   33.4359 H   0  0  0  0  0  0
   -8.7470   -4.6858   34.9349 H   0  0  0  0  0  0
   -8.9481   -4.2893   32.4447 H   0  0  0  0  0  0
  -10.0306   -5.5988   33.0277 H   0  0  0  0  0  0
   -8.5059   -6.0087   32.1710 H   0  0  0  0  0  0
   -7.7465   -6.6988   35.7357 H   0  0  0  0  0  0
   -7.8056   -7.3995   34.0828 H   0  0  0  0  0  0
   -9.3303   -6.9896   34.9395 H   0  0  0  0  0  0
   -6.1250   -5.0014   31.7712 H   0  0  0  0  0  0
   -4.8887   -3.8179   31.2257 H   0  0  0  0  0  0
   -6.4793   -3.9024   30.3952 H   0  0  0  0  0  0
   -6.6819   -1.0115   32.8598 H   0  0  0  0  0  0
   -4.6399   -1.5961   30.6527 H   0  0  0  0  0  0
   -4.9484   -0.0037   31.4244 H   0  0  0  0  0  0
   -4.0971   -2.5468   32.9561 H   0  0  0  0  0  0
   -5.3938   -1.1491   34.2974 H   0  0  0  0  0  0
   -4.2584    0.2094   33.9940 H   0  0  0  0  0  0
   -3.6801   -1.2771   34.8202 H   0  0  0  0  0  0
   -2.3505   -1.5931   31.3680 H   0  0  0  0  0  0
   -1.8813   -1.5328   33.1009 H   0  0  0  0  0  0
   -2.4596   -0.0463   32.2748 H   0  0  0  0  0  0
   -7.0184    0.7372   31.0859 H   0  0  0  0  0  0
   -9.2026   -0.2038   29.3724 H   0  0  0  0  0  0
   -9.1205    2.0759   30.5217 H   0  0  0  0  0  0
   -9.3620    2.2591   28.7511 H   0  0  0  0  0  0
   -7.7391    2.5358   29.4696 H   0  0  0  0  0  0
  1  2  1  0  0  0
  1 95  1  0  0  0
  1 98  1  0  0  0
  2  3  1  0  0  0
  2  4  1  0  0  0
  2 98  1  0  0  0
  3 99  1  0  0  0
  3100  1  0  0  0
  3101  1  0  0  0
  4  5  2  0  0  0
  4  6  1  0  0  0
  6  7  1  0  0  0
  6  8  1  0  0  0
  7102  1  0  0  0
  7103  1  0  0  0
  7104  1  0  0  0
  8  9  1  0  0  0
  8 13  1  0  0  0
  8105  1  0  0  0
  9 10  1  0  0  0
  9106  1  0  0  0
  9107  1  0  0  0
 10 11  1  0  0  0
 10 12  1  0  0  0
 10108  1  0  0  0
 11109  1  0  0  0
 11110  1  0  0  0
 11111  1  0  0  0
 12112  1  0  0  0
 12113  1  0  0  0
 12114  1  0  0  0
 13 14  2  0  0  0
 13 15  1  0  0  0
 15 16  1  0  0  0
 15 17  1  0  0  0
 16115  1  0  0  0
 16116  1  0  0  0
 16117  1  0  0  0
 17 18  1  0  0  0
 17 22  1  0  0  0
 17118  1  0  0  0
 18 19  1  0  0  0
 18119  1  0  0  0
 18120  1  0  0  0
 19 20  1  0  0  0
 19 21  1  0  0  0
 19121  1  0  0  0
 20122  1  0  0  0
 20123  1  0  0  0
 20124  1  0  0  0
 21125  1  0  0  0
 21126  1  0  0  0
 21127  1  0  0  0
 22 23  2  0  0  0
 22 24  1  0  0  0
 24 25  1  0  0  0
 24 26  1  0  0  0
 25128  1  0  0  0
 25129  1  0  0  0
 25130  1  0  0  0
 26 27  1  0  0  0
 26 30  1  0  0  0
 26131  1  0  0  0
 27 28  1  0  0  0
 27 29  1  0  0  0
 27132  1  0  0  0
 28133  1  0  0  0
 28134  1  0  0  0
 28135  1  0  0  0
 29136  1  0  0  0
 29137  1  0  0  0
 29138  1  0  0  0
 30 31  2  0  0  0
 30 33  1  0  0  0
 32 34  2  0  0  0
 32 35  1  0  0  0
 32 57  1  0  0  0
 33 35  1  0  0  0
 33 39  1  0  0  0
 35 36  1  0  0  0
 35139  1  0  0  0
 36 55  1  0  0  0
 36 56  1  0  0  0
 36140  1  0  0  0
 37 40  2  0  0  0
 37 54  1  0  0  0
 37141  1  0  0  0
 38 40  1  0  0  0
 38 41  1  0  0  0
 38142  1  0  0  0
 38143  1  0  0  0
 39144  1  0  0  0
 39145  1  0  0  0
 39146  1  0  0  0
 40147  1  0  0  0
 41 49  1  0  0  0
 41148  1  0  0  0
 41149  1  0  0  0
 42 43  2  0  0  0
 42 44  1  0  0  0
 42150  1  0  0  0
 43 50  1  0  0  0
 43151  1  0  0  0
 44 52  1  0  0  0
 44152  1  0  0  0
 44153  1  0  0  0
 45 46  2  0  0  0
 45 47  1  0  0  0
 45154  1  0  0  0
 46 48  1  0  0  0
 46155  1  0  0  0
 47 50  2  0  0  0
 47156  1  0  0  0
 48 51  2  0  0  0
 48157  1  0  0  0
 49 52  1  0  0  0
 49158  1  0  0  0
 49159  1  0  0  0
 50 51  1  0  0  0
 51 52  1  0  0  0
 53 56  1  0  0  0
 53160  1  0  0  0
 53161  1  0  0  0
 53162  1  0  0  0
 54 56  1  0  0  0
 54163  1  0  0  0
 54164  1  0  0  0
 55165  1  0  0  0
 56166  1  0  0  0
 57 58  1  0  0  0
 57167  1  0  0  0
 58 59  1  0  0  0
 58 61  1  0  0  0
 58168  1  0  0  0
 59 60  2  0  0  0
 59 63  1  0  0  0
 61 62  1  0  0  0
 61169  1  0  0  0
 61170  1  0  0  0
 62171  1  0  0  0
 62172  1  0  0  0
 62173  1  0  0  0
 63 64  1  0  0  0
 63 67  1  0  0  0
 64 65  1  0  0  0
 64174  1  0  0  0
 64175  1  0  0  0
 65 66  2  0  0  0
 65 68  1  0  0  0
 67176  1  0  0  0
 67177  1  0  0  0
 67178  1  0  0  0
 68 69  1  0  0  0
 68 70  1  0  0  0
 69179  1  0  0  0
 69180  1  0  0  0
 69181  1  0  0  0
 70 71  1  0  0  0
 70 75  1  0  0  0
 70182  1  0  0  0
 71 72  1  0  0  0
 71183  1  0  0  0
 71184  1  0  0  0
 72 73  1  0  0  0
 72 74  1  0  0  0
 72185  1  0  0  0
 73186  1  0  0  0
 73187  1  0  0  0
 73188  1  0  0  0
 74189  1  0  0  0
 74190  1  0  0  0
 74191  1  0  0  0
 75 76  2  0  0  0
 75 77  1  0  0  0
 77 78  1  0  0  0
 77192  1  0  0  0
 78 79  1  0  0  0
 78 81  1  0  0  0
 78193  1  0  0  0
 79 80  2  0  0  0
 79 84  1  0  0  0
 81 82  1  0  0  0
 81 83  1  0  0  0
 81194  1  0  0  0
 82195  1  0  0  0
 82196  1  0  0  0
 82197  1  0  0  0
 83198  1  0  0  0
 83199  1  0  0  0
 83200  1  0  0  0
 84 85  1  0  0  0
 84 86  1  0  0  0
 85201  1  0  0  0
 85202  1  0  0  0
 85203  1  0  0  0
 86 87  1  0  0  0
 86 91  1  0  0  0
 86204  1  0  0  0
 87 88  1  0  0  0
 87205  1  0  0  0
 87206  1  0  0  0
 88 89  1  0  0  0
 88 90  1  0  0  0
 88207  1  0  0  0
 89208  1  0  0  0
 89209  1  0  0  0
 89210  1  0  0  0
 90211  1  0  0  0
 90212  1  0  0  0
 90213  1  0  0  0
 91 92  2  0  0  0
 91 93  1  0  0  0
 93 94  1  0  0  0
 93214  1  0  0  0
 94 95  1  0  0  0
 94 97  1  0  0  0
 94215  1  0  0  0
 95 96  2  0  0  0
 97216  1  0  0  0
 97217  1  0  0  0
 97218  1  0  0  0
M  END
> <s_m_source_file>
../5a0e_ligand.sdf

> <i_m_source_file_index>
1

> <s_epik_input>
W0NIM11DMTJOKE8yKUMoPU8pW0NASF0oW0NIM10pW05IXUMoPU8pW0NASF0oW0NIMl1bQ0hdKFtDSDNdKVtDSDNdKU4oW0NIM10pQyg9TylbQ0BIXShbQ0hdKFtDSDNdKVtDSDNdKVtOSF1DKD1PKVtDQEhdKFtDSDJdW0NIXShbQ0gzXSlbQ0gzXSlOKFtDSDNdKUMoPU8pW0NIMl1OKFtDSDNdKUMoPU8pW0NASF0oW0NIMl1bQ0gzXSlbTkhdQyg9TylbQ0BASF0oTihbQ0gzXSlDKD1PKVtDQEhdKFtDSF0oW0NIM10pW0NIM10pTihbQ0gzXSlDKD1PKVtDQEhdKFtDSDJdW0NIXShbQ0gzXSlbQ0gzXSlOKFtDSDNdKUMoPU8pW0NAQEhdKE4oQzE9TylbQ0gzXSlbQ0gyXVtDSF0oW0NIM10pW0NIM10pW0NASF0oW09IXSlbQ0BIXShbQ0gzXSlbQ0gyXS9bQ0hdPVtDSF0vW0NIMl1bQ0gyXVtDSDJdTihbQ0gyXVtDSF09W0NIXTMpYyhjMzQpW2NIXVtjSF1bY0hdW2NIXTQ=

> <s_epik_cmdline>
J2VwaWtfYXBwJywgJy1pbWFlJywgJ2xpZ2FuZF9wcm8ubWFlJywgJy1vbWFlJywgJ2xpZ2FuZF9wcmVwLm1hZScsICctbXMnLCAnMScsICctcGgnLCAnNycsICctcGh0JywgJzAuNScsICctbnQn

> <s_epik_pKa_notes>
Molecule size exceeds maximum supported for generating protonation states

> <s_epik_Chemistry_Notes>
This compound has a N-S or N-O group and may undergo hydrolysis at high or low pH.

$$$$
