5a14_ligand
                    3D
 Schrodinger Suite 2020-3.
 63 66  0  0  1  0            999 V2000
   30.1510    6.6710    5.8400 C   0  0  0  0  0  0
   30.7330    5.9910    6.9000 C   0  0  0  0  0  0
   30.0880    5.9120    8.1500 C   0  0  0  0  0  0
   28.2640    7.2340    7.2920 C   0  0  0  0  0  0
   28.9250    7.2940    6.0530 C   0  0  0  0  0  0
   28.3480    7.9940    5.0040 O   0  0  0  0  0  0
   27.2160    7.4730    4.3940 C   0  0  0  0  0  0
   26.8810    6.1020    4.4060 C   0  0  0  0  0  0
   25.7180    5.7070    3.7280 C   0  0  0  0  0  0
   24.9790    6.6690    3.1010 N   0  0  0  0  0  0
   25.3330    7.9740    3.1100 C   0  0  0  0  0  0
   24.5950    8.9180    2.5040 N   0  0  0  0  0  0
   30.1130    4.6560   10.2620 C   0  0  0  0  0  0
   30.9130    3.9270   11.0670 N   0  0  0  0  0  0
   30.5240    3.3920   12.3120 C   0  0  0  0  0  0
   31.5510    3.2130   13.2640 C   0  0  0  0  0  0
   31.2210    2.7160   14.5250 C   0  0  0  0  0  0
   29.8850    2.4300   14.8680 C   0  0  0  0  0  0
   28.8490    2.6270   13.9140 C   0  0  0  0  0  0
   27.3680    2.3340   14.2430 C   0  0  0  0  0  0
   26.9130    3.2150   15.1700 F   0  0  0  0  0  0
   27.2600    1.0670   14.7080 F   0  0  0  0  0  0
   26.5290    2.4700   13.2000 F   0  0  0  0  0  0
   29.1810    3.1100   12.6470 C   0  0  0  0  0  0
   29.6340    1.8800   16.3040 C   0  0  0  0  0  0
   30.3260    2.6680   17.3550 N   0  3  1  0  0  0
   29.9870    4.1240   17.4730 C   0  0  0  0  0  0
   26.4480    8.3700    3.7520 N   0  0  0  0  0  0
   31.0000    4.7830   18.4510 C   0  0  0  0  0  0
   31.0000    4.0680   19.7690 N   0  0  1  0  0  0
   28.8520    6.5290    8.3470 C   0  0  0  0  0  0
   31.4270    2.6550   19.5990 C   0  0  0  0  0  0
   30.4210    1.9370   18.6550 C   0  0  0  0  0  0
   31.8770    4.7960   20.7320 C   0  0  0  0  0  0
   28.9190    4.8660   10.5110 O   0  0  0  0  0  0
   30.7200    5.1710    9.1750 N   0  0  0  0  0  0
   30.6405    6.7160    4.8672 H   0  0  0  0  0  0
   31.7023    5.5114    6.7639 H   0  0  0  0  0  0
   27.3038    7.7314    7.4290 H   0  0  0  0  0  0
   27.5051    5.3743    4.9248 H   0  0  0  0  0  0
   25.4127    4.6609    3.7024 H   0  0  0  0  0  0
   23.6762    8.6379    1.9680 H   0  0  0  0  0  0
   24.9093    9.9714    2.5436 H   0  0  0  0  0  0
   31.9491    3.7134   10.7655 H   0  0  0  0  0  0
   32.5840    3.4589   13.0180 H   0  0  0  0  0  0
   32.0103    2.5461   15.2573 H   0  0  0  0  0  0
   28.3957    3.2712   11.9085 H   0  0  0  0  0  0
   28.5563    1.9044   16.5228 H   0  0  0  0  0  0
   29.9979    0.8439   16.3686 H   0  0  0  0  0  0
   31.3481    2.7368   16.9542 H   0  0  0  0  0  0
   30.0557    4.5979   16.4827 H   0  0  0  0  0  0
   28.9633    4.2319   17.8608 H   0  0  0  0  0  0
   32.0106    4.7355   18.0191 H   0  0  0  0  0  0
   30.7205    5.8342   18.6151 H   0  0  0  0  0  0
   28.3504    6.4622    9.3124 H   0  0  0  0  0  0
   32.4351    2.6269   19.1598 H   0  0  0  0  0  0
   31.4400    2.1554   20.5789 H   0  0  0  0  0  0
   29.4313    1.9112   19.1343 H   0  0  0  0  0  0
   30.7672    0.9089   18.4731 H   0  0  0  0  0  0
   31.5299    5.8351   20.8306 H   0  0  0  0  0  0
   32.9129    4.7890   20.3620 H   0  0  0  0  0  0
   31.8347    4.3006   21.7132 H   0  0  0  0  0  0
   31.8007    4.9723    9.1237 H   0  0  0  0  0  0
  1  2  2  0  0  0
  1  5  1  0  0  0
  1 37  1  0  0  0
  2  3  1  0  0  0
  2 38  1  0  0  0
  3 31  2  0  0  0
  3 36  1  0  0  0
  4  5  2  0  0  0
  4 31  1  0  0  0
  4 39  1  0  0  0
  5  6  1  0  0  0
  6  7  1  0  0  0
  7  8  2  0  0  0
  7 28  1  0  0  0
  8  9  1  0  0  0
  8 40  1  0  0  0
  9 10  2  0  0  0
  9 41  1  0  0  0
 10 11  1  0  0  0
 11 12  1  0  0  0
 11 28  2  0  0  0
 12 42  1  0  0  0
 12 43  1  0  0  0
 13 14  1  0  0  0
 13 35  2  0  0  0
 13 36  1  0  0  0
 14 15  1  0  0  0
 14 44  1  0  0  0
 15 16  2  0  0  0
 15 24  1  0  0  0
 16 17  1  0  0  0
 16 45  1  0  0  0
 17 18  2  0  0  0
 17 46  1  0  0  0
 18 19  1  0  0  0
 18 25  1  0  0  0
 19 20  1  0  0  0
 19 24  2  0  0  0
 20 21  1  0  0  0
 20 22  1  0  0  0
 20 23  1  0  0  0
 24 47  1  0  0  0
 25 26  1  0  0  0
 25 48  1  0  0  0
 25 49  1  0  0  0
 26 27  1  0  0  0
 26 33  1  0  0  0
 26 50  1  0  0  0
 27 29  1  0  0  0
 27 51  1  0  0  0
 27 52  1  0  0  0
 29 30  1  0  0  0
 29 53  1  0  0  0
 29 54  1  0  0  0
 30 32  1  0  0  0
 30 34  1  0  0  0
 31 55  1  0  0  0
 32 33  1  0  0  0
 32 56  1  0  0  0
 32 57  1  0  0  0
 33 58  1  0  0  0
 33 59  1  0  0  0
 34 60  1  0  0  0
 34 61  1  0  0  0
 34 62  1  0  0  0
 36 63  1  0  0  0
M  CHG  1  26   1
M  END
> <s_m_source_file>
../5a14_ligand.sdf

> <i_m_source_file_index>
1

> <s_epik_input>
W05IMl1jKG4xKW5bY0hdW2NIXWMxT2MoW2NIXVtjSF0yKVtjSF1bY0hdYzJbTkhdQyg9TylbTkhdYzNbY0hdW2NIXWMoYyhDKEYpKEYpRilbY0hdMylbQ0gyXVtOQEgrXTRbQ0gyXVtDSDJdW05ASCtdKFtDSDNdKVtDSDJdW0NIMl00

> <s_epik_cmdline>
J2VwaWtfYXBwJywgJy1pbWFlJywgJ2xpZ2FuZF9wcm8ubWFlJywgJy1vbWFlJywgJ2xpZ2FuZF9wcmVwLm1hZScsICctbXMnLCAnMScsICctcGgnLCAnNycsICctcGh0JywgJzAuNScsICctbnQn

> <r_lp_tautomer_probability>
1

> <r_epik_Ionization_Penalty>
  0.0355

> <r_epik_Ionization_Penalty_Charging>
  0.0155

> <r_epik_Ionization_Penalty_Neutral>
  0.0201

> <r_epik_State_Penalty>
 -0.0000

> <r_epik_Charging_Adjusted_Penalty>
0.0154526225118262

> <i_epik_Tot_Q>
1

> <i_epik_Tot_abs_Q>
1

$$$$
