5a2i_ligand
                    3D
 Schrodinger Suite 2020-3.
 88 89  0  0  1  0            999 V2000
   12.9370   14.1270    3.8110 N   0  3  0  0  0  0
   12.1090   14.8770    4.7920 C   0  0  2  0  0  0
   12.1870   14.3340    6.2350 C   0  0  0  0  0  0
   12.3090   15.1440    7.1480 O   0  0  0  0  0  0
   10.6930   15.0060    4.3360 C   0  0  0  0  0  0
   12.1440   12.9850    6.4390 N   0  0  0  0  0  0
   12.6180   12.4820    7.7330 C   0  0  2  0  0  0
   14.1520   12.4010    7.7200 C   0  0  0  0  0  0
   14.8010   13.0290    6.8870 O   0  0  0  0  0  0
   11.9200   11.1170    7.8490 C   0  0  0  0  0  0
   11.8210   10.6710    6.4380 C   0  0  0  0  0  0
   11.6070   11.8880    5.6040 C   0  0  0  0  0  0
   14.7540   11.6520    8.6300 N   0  0  0  0  0  0
   16.1970   11.6010    8.6740 C   0  0  2  0  0  0
   16.7330   10.7250    7.5230 C   0  0  0  0  0  0
   16.8540    9.4930    7.6480 O   0  0  0  0  0  0
   16.6480   11.0960   10.0170 C   0  0  0  0  0  0
   18.1340   11.1610   10.1990 C   0  0  0  0  0  0
   18.8460   11.5690    9.2710 O   0  5  0  0  0  0
   18.6050   10.7310   11.2610 O   0  0  0  0  0  0
   17.0580   11.4080    6.4240 N   0  0  0  0  0  0
   17.5630   10.7930    5.1860 C   0  0  2  0  0  0
   19.0820   10.5800    5.1890 C   0  0  0  0  0  0
   19.6650   10.1830    4.1710 O   0  0  0  0  0  0
   17.1420   11.6260    3.9400 C   0  0  0  0  0  0
   17.9190   12.8210    3.7380 O   0  0  0  0  0  0
   19.7290   10.8230    6.3250 N   0  0  0  0  0  0
   21.1620   10.6900    6.4170 C   0  0  2  0  0  0
   21.5440    9.1930    6.2870 C   0  0  0  0  0  0
   21.0630    8.3700    7.0460 O   0  0  0  0  0  0
   21.6500   11.2280    7.7700 C   0  0  0  0  0  0
   23.0580   11.7970    7.7470 C   0  0  0  0  0  0
   23.8660   11.4730    8.9980 C   0  0  0  0  0  0
   25.2430   11.1990    8.6150 N   0  0  0  0  0  0
   26.1320   10.5610    9.3710 C   0  0  0  0  0  0
   25.8210   10.1520   10.5860 N   0  3  0  0  0  0
   27.3520   10.3440    8.9160 N   0  0  0  0  0  0
   22.4250    8.8430    5.3390 N   0  0  0  0  0  0
   22.9100    7.4430    5.1950 C   0  0  2  0  0  0
   23.5950    6.8050    6.4180 C   0  0  0  0  0  0
   24.0870    7.5120    7.2970 O   0  0  0  0  0  0
   23.9040    7.5230    4.0290 C   0  0  0  0  0  0
   24.1720    8.9770    3.7950 C   0  0  0  0  0  0
   22.9880    9.7420    4.3120 C   0  0  0  0  0  0
   23.6580    5.5810    6.5300 O   0  5  0  0  0  0
   13.9697   14.0541    4.1827 H   0  0  0  0  0  0
   12.9310   14.6554    2.8463 H   0  0  0  0  0  0
   12.5229   13.1166    3.6783 H   0  0  0  0  0  0
   12.5504   15.8845    4.7868 H   0  0  0  0  0  0
   10.6731   15.3943    3.3070 H   0  0  0  0  0  0
   10.1557   15.6992    5.0000 H   0  0  0  0  0  0
   10.2071   14.0196    4.3651 H   0  0  0  0  0  0
   12.3630   13.1462    8.5719 H   0  0  0  0  0  0
   12.5342   10.4422    8.4633 H   0  0  0  0  0  0
   10.9350   11.2478    8.3209 H   0  0  0  0  0  0
   12.7523   10.1624    6.1480 H   0  0  0  0  0  0
   10.9752    9.9758    6.3317 H   0  0  0  0  0  0
   10.5418   12.0708    5.3993 H   0  0  0  0  0  0
   12.1607   11.8451    4.6545 H   0  0  0  0  0  0
   14.1609   11.0700    9.3507 H   0  0  0  0  0  0
   16.5518   12.6358    8.5588 H   0  0  0  0  0  0
   16.1877   11.7031   10.8105 H   0  0  0  0  0  0
   16.3429   10.0458   10.1352 H   0  0  0  0  0  0
   16.9275   12.4986    6.4828 H   0  0  0  0  0  0
   17.0869    9.8014    5.1900 H   0  0  0  0  0  0
   17.2532   11.0122    3.0340 H   0  0  0  0  0  0
   16.0924   11.9379    4.0450 H   0  0  0  0  0  0
   17.7019   13.4806    2.8849 H   0  0  0  0  0  0
   19.1475   11.1314    7.2064 H   0  0  0  0  0  0
   21.5723   11.2919    5.5928 H   0  0  0  0  0  0
   20.9828   12.0355    8.1057 H   0  0  0  0  0  0
   21.6441   10.4154    8.5114 H   0  0  0  0  0  0
   23.6056   11.3859    6.8861 H   0  0  0  0  0  0
   23.0094   12.8926    7.6614 H   0  0  0  0  0  0
   23.8361   12.3307    9.6861 H   0  0  0  0  0  0
   23.4362   10.5901    9.4937 H   0  0  0  0  0  0
   25.6168   11.5277    7.6341 H   0  0  0  0  0  0
   24.8093   10.3240   10.9821 H   0  0  0  0  0  0
   27.6296   10.6779    7.9053 H   0  0  0  0  0  0
   28.0911    9.8293    9.5475 H   0  0  0  0  0  0
   22.0194    6.8150    5.0451 H   0  0  0  0  0  0
   24.8289    6.9920    4.2986 H   0  0  0  0  0  0
   23.4606    7.0572    3.1366 H   0  0  0  0  0  0
   25.0854    9.2725    4.3321 H   0  0  0  0  0  0
   24.3056    9.1566    2.7180 H   0  0  0  0  0  0
   22.2338    9.9263    3.5328 H   0  0  0  0  0  0
   23.2749   10.6964    4.7776 H   0  0  0  0  0  0
   26.5734    9.6389   11.2030 H   0  0  0  0  0  0
  1  2  1  0  0  0
  1 46  1  0  0  0
  1 47  1  0  0  0
  1 48  1  0  0  0
  2  3  1  0  0  0
  2  5  1  0  0  0
  2 49  1  0  0  0
  3  4  2  0  0  0
  3  6  1  0  0  0
  5 50  1  0  0  0
  5 51  1  0  0  0
  5 52  1  0  0  0
  6  7  1  0  0  0
  6 12  1  0  0  0
  7  8  1  0  0  0
  7 10  1  0  0  0
  7 53  1  0  0  0
  8  9  2  0  0  0
  8 13  1  0  0  0
 10 11  1  0  0  0
 10 54  1  0  0  0
 10 55  1  0  0  0
 11 12  1  0  0  0
 11 56  1  0  0  0
 11 57  1  0  0  0
 12 58  1  0  0  0
 12 59  1  0  0  0
 13 14  1  0  0  0
 13 60  1  0  0  0
 14 15  1  0  0  0
 14 17  1  0  0  0
 14 61  1  0  0  0
 15 16  2  0  0  0
 15 21  1  0  0  0
 17 18  1  0  0  0
 17 62  1  0  0  0
 17 63  1  0  0  0
 18 19  1  0  0  0
 18 20  2  0  0  0
 21 22  1  0  0  0
 21 64  1  0  0  0
 22 23  1  0  0  0
 22 25  1  0  0  0
 22 65  1  0  0  0
 23 24  2  0  0  0
 23 27  1  0  0  0
 25 26  1  0  0  0
 25 66  1  0  0  0
 25 67  1  0  0  0
 26 68  1  0  0  0
 27 28  1  0  0  0
 27 69  1  0  0  0
 28 29  1  0  0  0
 28 31  1  0  0  0
 28 70  1  0  0  0
 29 30  2  0  0  0
 29 38  1  0  0  0
 31 32  1  0  0  0
 31 71  1  0  0  0
 31 72  1  0  0  0
 32 33  1  0  0  0
 32 73  1  0  0  0
 32 74  1  0  0  0
 33 34  1  0  0  0
 33 75  1  0  0  0
 33 76  1  0  0  0
 34 35  1  0  0  0
 34 77  1  0  0  0
 35 36  2  0  0  0
 35 37  1  0  0  0
 36 78  1  0  0  0
 36 88  1  0  0  0
 37 79  1  0  0  0
 37 80  1  0  0  0
 38 39  1  0  0  0
 38 44  1  0  0  0
 39 40  1  0  0  0
 39 42  1  0  0  0
 39 81  1  0  0  0
 40 41  2  0  0  0
 40 45  1  0  0  0
 42 43  1  0  0  0
 42 82  1  0  0  0
 42 83  1  0  0  0
 43 44  1  0  0  0
 43 84  1  0  0  0
 43 85  1  0  0  0
 44 86  1  0  0  0
 44 87  1  0  0  0
M  CHG  4   1   1  19  -1  36   1  45  -1
M  END
> <s_m_source_file>
../5a2i_ligand.sdf

> <i_m_source_file_index>
1

> <s_epik_input>
W05IMytdW0NAQEhdKFtDSDNdKUMoPU8pTjFbQ0BASF0oW0NIMl1bQ0gyXVtDSDJdMSlDKD1PKVtOSF1bQ0BASF0oW0NIMl1DKD1PKVtPSF0pQyg9TylbTkhdW0NAQEhdKFtDSDJdW09IXSlDKD1PKVtOSF1bQ0BIXShDKD1PKU4yW0NASF0oQyg9TylbT0hdKVtDSDJdW0NIMl1bQ0gyXTIpW0NIMl1bQ0gyXVtDSDJdW05IXS9DKD1OXFtIXSlbTkgyXQ==

> <s_epik_cmdline>
J2VwaWtfYXBwJywgJy1pbWFlJywgJ2xpZ2FuZF9wcm8ubWFlJywgJy1vbWFlJywgJ2xpZ2FuZF9wcmVwLm1hZScsICctbXMnLCAnMScsICctcGgnLCAnNycsICctcGh0JywgJzAuNScsICctbnQn

> <r_epik_Ionization_Penalty>
  0.1180

> <r_epik_Ionization_Penalty_Charging>
  0.1180

> <r_epik_Ionization_Penalty_Neutral>
  0.0000

> <r_epik_State_Penalty>
  0.1060

> <r_epik_Charging_Adjusted_Penalty>
0.224007324916955

> <i_epik_Tot_Q>
0

> <i_epik_Tot_abs_Q>
4

> <s_epik_Chemistry_Notes>
This compound has an imine and may undergo hydrolysis.

$$$$
