5a2j_ligand
                    3D
 Schrodinger Suite 2020-3.
 91 92  0  0  1  0            999 V2000
   -8.3390    0.5270    8.6260 N   0  3  0  0  0  0
   -6.9890    1.0820    8.6030 C   0  0  2  0  0  0
   -6.5140    1.3920   10.0090 C   0  0  0  0  0  0
   -7.3110    1.4920   10.8850 O   0  0  0  0  0  0
   -6.9990    2.3690    7.7980 C   0  0  0  0  0  0
   -5.2110    1.5160   10.1590 N   0  0  0  0  0  0
   -4.6360    1.9680   11.4190 C   0  0  2  0  0  0
   -4.7050    3.4960   11.5030 C   0  0  0  0  0  0
   -5.5730    4.0840   10.8390 O   0  0  0  0  0  0
   -3.2140    1.4410   11.3440 C   0  0  0  0  0  0
   -2.8830    1.5420    9.8910 C   0  0  0  0  0  0
   -4.1610    1.2500    9.1550 C   0  0  0  0  0  0
   -3.8650    4.1390   12.3120 N   0  0  0  0  0  0
   -3.9210    5.5860   12.4630 C   0  0  2  0  0  0
   -3.2980    6.2490   11.2310 C   0  0  0  0  0  0
   -2.0770    6.3180   11.1110 O   0  0  0  0  0  0
   -3.1870    6.0560   13.7090 C   0  0  0  0  0  0
   -3.4460    7.5000   14.0400 C   0  0  0  0  0  0
   -4.2030    8.1940   13.3060 O   0  5  0  0  0  0
   -2.8770    7.9640   15.0490 O   0  0  0  0  0  0
   -4.1530    6.7540   10.3400 N   0  0  0  0  0  0
   -3.6910    7.3950    9.1090 C   0  0  2  0  0  0
   -3.5700    8.9140    9.2380 C   0  0  0  0  0  0
   -3.3110    9.6190    8.2390 O   0  0  0  0  0  0
   -4.6450    7.0490    7.9330 C   0  0  2  0  0  0
   -5.9600    7.4970    8.2670 O   0  0  0  0  0  0
   -4.6680    5.5540    7.6930 C   0  0  0  0  0  0
   -3.7090    9.4570   10.4400 N   0  0  0  0  0  0
   -3.5730   10.9070   10.5720 C   0  0  2  0  0  0
   -2.1310   11.3020   10.2380 C   0  0  0  0  0  0
   -1.1870   10.7160   10.7670 O   0  0  0  0  0  0
   -3.9160   11.3670   11.9700 C   0  0  0  0  0  0
   -3.6890   12.8680   12.1320 C   0  0  0  0  0  0
   -3.9140   13.2930   13.5520 C   0  0  0  0  0  0
   -5.3280   13.4370   13.7560 N   0  0  0  0  0  0
   -6.0310   14.5410   13.4870 C   0  0  0  0  0  0
   -5.4470   15.6330   12.9920 N   0  0  0  0  0  0
   -7.3380   14.5450   13.7150 N   0  3  0  0  0  0
   -1.9510   12.2900    9.3370 N   0  0  0  0  0  0
   -0.5880   12.6770    8.9960 C   0  0  2  0  0  0
    0.2330   13.0600   10.2450 C   0  0  0  0  0  0
   -0.2850   13.7810   11.0860 O   0  0  0  0  0  0
   -0.7910   13.8940    8.0880 C   0  0  0  0  0  0
   -2.1360   13.6860    7.4620 C   0  0  0  0  0  0
   -2.9650   12.9800    8.5130 C   0  0  0  0  0  0
    1.3730   12.6290   10.3500 O   0  5  0  0  0  0
   -8.3417   -0.4067    9.2076 H   0  0  0  0  0  0
   -8.6675    0.3190    7.5970 H   0  0  0  0  0  0
   -9.0250    1.2505    9.0907 H   0  0  0  0  0  0
   -6.3412    0.3193    8.1462 H   0  0  0  0  0  0
   -7.3421    2.1585    6.7743 H   0  0  0  0  0  0
   -5.9828    2.7888    7.7651 H   0  0  0  0  0  0
   -7.6793    3.0922    8.2713 H   0  0  0  0  0  0
   -5.1803    1.5839   12.2943 H   0  0  0  0  0  0
   -2.5580    2.0659   11.9679 H   0  0  0  0  0  0
   -3.1877    0.4036   11.7089 H   0  0  0  0  0  0
   -2.5179    2.5553    9.6677 H   0  0  0  0  0  0
   -2.1031    0.8078    9.6407 H   0  0  0  0  0  0
   -4.2237    0.2017    8.8278 H   0  0  0  0  0  0
   -4.3048    1.9134    8.2895 H   0  0  0  0  0  0
   -3.1189    3.5561   12.8719 H   0  0  0  0  0  0
   -4.9900    5.8236   12.5666 H   0  0  0  0  0  0
   -3.5079    5.4546   14.5723 H   0  0  0  0  0  0
   -2.1032    5.9380   13.5625 H   0  0  0  0  0  0
   -5.2301    6.6790   10.5502 H   0  0  0  0  0  0
   -2.6822    6.9806    8.9657 H   0  0  0  0  0  0
   -4.3635    7.5629    7.0020 H   0  0  0  0  0  0
   -6.1416    8.5614    8.4771 H   0  0  0  0  0  0
   -3.6559    5.2083    7.4358 H   0  0  0  0  0  0
   -5.3549    5.3262    6.8646 H   0  0  0  0  0  0
   -5.0099    5.0416    8.6043 H   0  0  0  0  0  0
   -3.9220    8.8416   11.3265 H   0  0  0  0  0  0
   -4.2954   11.3534    9.8728 H   0  0  0  0  0  0
   -4.9738   11.1488   12.1786 H   0  0  0  0  0  0
   -3.2822   10.8371   12.6963 H   0  0  0  0  0  0
   -2.6553   13.1152   11.8485 H   0  0  0  0  0  0
   -4.3881   13.4167   11.4838 H   0  0  0  0  0  0
   -3.5089   12.5291   14.2319 H   0  0  0  0  0  0
   -3.4055   14.2515   13.7328 H   0  0  0  0  0  0
   -5.9132   12.5990   14.1625 H   0  0  0  0  0  0
   -4.3639   15.6384   12.7999 H   0  0  0  0  0  0
   -6.0484   16.5283   12.7758 H   0  0  0  0  0  0
   -7.8279   13.6486   14.1232 H   0  0  0  0  0  0
   -0.0688   11.8317    8.5207 H   0  0  0  0  0  0
   -0.7611   14.8121    8.6932 H   0  0  0  0  0  0
    0.0088   13.9260    7.3335 H   0  0  0  0  0  0
   -2.5707   14.6605    7.1947 H   0  0  0  0  0  0
   -2.0277   13.0719    6.5558 H   0  0  0  0  0  0
   -3.6514   12.2381    8.0790 H   0  0  0  0  0  0
   -3.5331   13.6813    9.1418 H   0  0  0  0  0  0
   -7.9318   15.4447   13.4959 H   0  0  0  0  0  0
  1  2  1  0  0  0
  1 47  1  0  0  0
  1 48  1  0  0  0
  1 49  1  0  0  0
  2  3  1  0  0  0
  2  5  1  0  0  0
  2 50  1  0  0  0
  3  4  2  0  0  0
  3  6  1  0  0  0
  5 51  1  0  0  0
  5 52  1  0  0  0
  5 53  1  0  0  0
  6  7  1  0  0  0
  6 12  1  0  0  0
  7  8  1  0  0  0
  7 10  1  0  0  0
  7 54  1  0  0  0
  8  9  2  0  0  0
  8 13  1  0  0  0
 10 11  1  0  0  0
 10 55  1  0  0  0
 10 56  1  0  0  0
 11 12  1  0  0  0
 11 57  1  0  0  0
 11 58  1  0  0  0
 12 59  1  0  0  0
 12 60  1  0  0  0
 13 14  1  0  0  0
 13 61  1  0  0  0
 14 15  1  0  0  0
 14 17  1  0  0  0
 14 62  1  0  0  0
 15 16  2  0  0  0
 15 21  1  0  0  0
 17 18  1  0  0  0
 17 63  1  0  0  0
 17 64  1  0  0  0
 18 19  1  0  0  0
 18 20  2  0  0  0
 21 22  1  0  0  0
 21 65  1  0  0  0
 22 23  1  0  0  0
 22 25  1  0  0  0
 22 66  1  0  0  0
 23 24  2  0  0  0
 23 28  1  0  0  0
 25 26  1  0  0  0
 25 27  1  0  0  0
 25 67  1  0  0  0
 26 68  1  0  0  0
 27 69  1  0  0  0
 27 70  1  0  0  0
 27 71  1  0  0  0
 28 29  1  0  0  0
 28 72  1  0  0  0
 29 30  1  0  0  0
 29 32  1  0  0  0
 29 73  1  0  0  0
 30 31  2  0  0  0
 30 39  1  0  0  0
 32 33  1  0  0  0
 32 74  1  0  0  0
 32 75  1  0  0  0
 33 34  1  0  0  0
 33 76  1  0  0  0
 33 77  1  0  0  0
 34 35  1  0  0  0
 34 78  1  0  0  0
 34 79  1  0  0  0
 35 36  1  0  0  0
 35 80  1  0  0  0
 36 37  1  0  0  0
 36 38  2  0  0  0
 37 81  1  0  0  0
 37 82  1  0  0  0
 38 83  1  0  0  0
 38 91  1  0  0  0
 39 40  1  0  0  0
 39 45  1  0  0  0
 40 41  1  0  0  0
 40 43  1  0  0  0
 40 84  1  0  0  0
 41 42  2  0  0  0
 41 46  1  0  0  0
 43 44  1  0  0  0
 43 85  1  0  0  0
 43 86  1  0  0  0
 44 45  1  0  0  0
 44 87  1  0  0  0
 44 88  1  0  0  0
 45 89  1  0  0  0
 45 90  1  0  0  0
M  CHG  4   1   1  19  -1  38   1  46  -1
M  END
> <s_m_source_file>
../5a2j_ligand.sdf

> <i_m_source_file_index>
1

> <s_epik_input>
W05IMytdW0NAQEhdKFtDSDNdKUMoPU8pTjFbQ0BASF0oW0NIMl1bQ0gyXVtDSDJdMSlDKD1PKVtOSF1bQ0BASF0oW0NIMl1DKD1PKVtPSF0pQyg9TylbTkhdW0NAQEhdKFtDQEhdKFtPSF0pW0NIM10pQyg9TylbTkhdW0NASF0oQyg9TylOMltDQEhdKEMoPU8pW09IXSlbQ0gyXVtDSDJdW0NIMl0yKVtDSDJdW0NIMl1bQ0gyXVtOSF0vQyhbTkgyXSk9TlxbSF0=

> <s_epik_cmdline>
J2VwaWtfYXBwJywgJy1pbWFlJywgJ2xpZ2FuZF9wcm8ubWFlJywgJy1vbWFlJywgJ2xpZ2FuZF9wcmVwLm1hZScsICctbXMnLCAnMScsICctcGgnLCAnNycsICctcGh0JywgJzAuNScsICctbnQn

> <r_epik_Ionization_Penalty>
  0.1180

> <r_epik_Ionization_Penalty_Charging>
  0.1180

> <r_epik_Ionization_Penalty_Neutral>
  0.0000

> <r_epik_State_Penalty>
  0.1060

> <r_epik_Charging_Adjusted_Penalty>
0.224024695707662

> <i_epik_Tot_Q>
0

> <i_epik_Tot_abs_Q>
4

> <s_epik_Chemistry_Notes>
This compound has an imine and may undergo hydrolysis.

$$$$
