5a2k_ligand
                    3D
 Schrodinger Suite 2020-3.
 91 92  0  0  1  0            999 V2000
   13.9590   13.2810    1.1800 N   0  3  0  0  0  0
   13.7960   14.2660    2.2410 C   0  0  2  0  0  0
   13.6350   13.8070    3.7010 C   0  0  0  0  0  0
   13.5430   14.6840    4.5370 O   0  0  0  0  0  0
   12.6930   15.2390    1.8820 C   0  0  0  0  0  0
   13.6440   12.4730    4.0260 N   0  0  0  0  0  0
   14.0190   12.1290    5.4190 C   0  0  2  0  0  0
   15.5550   12.1980    5.5660 C   0  0  0  0  0  0
   16.2280   12.9160    4.7740 O   0  0  0  0  0  0
   13.4630   10.7060    5.5980 C   0  0  0  0  0  0
   13.5790   10.1180    4.2340 C   0  0  0  0  0  0
   13.2570   11.2630    3.2790 C   0  0  0  0  0  0
   16.1150   11.5060    6.5550 N   0  0  0  0  0  0
   17.5550   11.5110    6.7790 C   0  0  2  0  0  0
   18.2350   10.6030    5.7700 C   0  0  0  0  0  0
   18.4710    9.4110    6.0360 O   0  0  0  0  0  0
   17.9330   11.0470    8.1710 C   0  0  0  0  0  0
   19.3960   11.3290    8.4950 C   0  0  0  0  0  0
   20.0910   11.8890    7.6140 O   0  5  0  0  0  0
   19.8440   11.0050    9.6100 O   0  0  0  0  0  0
   18.5700   11.1930    4.6300 N   0  0  0  0  0  0
   19.2360   10.4730    3.5390 C   0  0  2  0  0  0
   20.7610   10.4650    3.6550 C   0  0  0  0  0  0
   21.4490   10.0800    2.7060 O   0  0  0  0  0  0
   18.8450   11.0890    2.1990 C   0  0  2  0  0  0
   18.9050   12.5310    2.2780 O   0  0  0  0  0  0
   17.4190   10.6780    1.8370 C   0  0  0  0  0  0
   21.3030   10.8970    4.7870 N   0  0  0  0  0  0
   22.7360   10.8420    4.9710 C   0  0  2  0  0  0
   23.2090    9.3970    4.9450 C   0  0  0  0  0  0
   22.6480    8.5500    5.6300 O   0  0  0  0  0  0
   23.1610   11.4870    6.2840 C   0  0  0  0  0  0
   24.6460   11.2800    6.5670 C   0  0  0  0  0  0
   25.0260   11.8320    7.9180 C   0  0  0  0  0  0
   25.1240   13.2680    7.8050 N   0  0  0  0  0  0
   26.2610   13.9580    7.7610 C   0  0  0  0  0  0
   27.4430   13.3550    7.8690 N   0  0  0  0  0  0
   26.1990   15.2790    7.6320 N   0  3  0  0  0  0
   24.2730    9.1020    4.1650 N   0  0  0  0  0  0
   24.7810    7.7230    4.1170 C   0  0  2  0  0  0
   25.2390    7.1240    5.4640 C   0  0  0  0  0  0
   25.8880    7.8130    6.2610 O   0  0  0  0  0  0
   25.9550    7.8140    3.1170 C   0  0  0  0  0  0
   26.2550    9.2610    2.9810 C   0  0  0  0  0  0
   24.9570    9.9670    3.1890 C   0  0  0  0  0  0
   24.9580    5.9530    5.7500 O   0  5  0  0  0  0
   14.7621   12.5798    1.4509 H   0  0  0  0  0  0
   14.2199   13.7925    0.2418 H   0  0  0  0  0  0
   13.0181   12.7270    1.0463 H   0  0  0  0  0  0
   14.8068   14.6984    2.2043 H   0  0  0  0  0  0
   12.8148   15.5623    0.8377 H   0  0  0  0  0  0
   12.7463   16.1147    2.5455 H   0  0  0  0  0  0
   11.7166   14.7469    2.0020 H   0  0  0  0  0  0
   13.6002   12.8282    6.1577 H   0  0  0  0  0  0
   14.0687   10.1665    6.3410 H   0  0  0  0  0  0
   12.4205   10.7606    5.9447 H   0  0  0  0  0  0
   14.6010    9.7401    4.0834 H   0  0  0  0  0  0
   12.8627    9.2898    4.1296 H   0  0  0  0  0  0
   12.1853   11.3096    3.0355 H   0  0  0  0  0  0
   13.8420   11.2032    2.3494 H   0  0  0  0  0  0
   15.4580   10.9186    7.2133 H   0  0  0  0  0  0
   17.8472   12.5645    6.6574 H   0  0  0  0  0  0
   17.3119   11.5700    8.9131 H   0  0  0  0  0  0
   17.7678    9.9626    8.2535 H   0  0  0  0  0  0
   18.3310   12.2610    4.5189 H   0  0  0  0  0  0
   18.8720    9.4401    3.6424 H   0  0  0  0  0  0
   19.5616   10.7840    1.4222 H   0  0  0  0  0  0
   19.8532   13.0291    2.5288 H   0  0  0  0  0  0
   17.3584    9.5815    1.7733 H   0  0  0  0  0  0
   17.1461   11.1173    0.8662 H   0  0  0  0  0  0
   16.7257   11.0392    2.6108 H   0  0  0  0  0  0
   20.6609   11.2971    5.5855 H   0  0  0  0  0  0
   23.1462   11.4133    4.1252 H   0  0  0  0  0  0
   22.9668   12.5689    6.2408 H   0  0  0  0  0  0
   22.5882   11.0444    7.1123 H   0  0  0  0  0  0
   24.8760   10.2044    6.5502 H   0  0  0  0  0  0
   25.2410   11.7943    5.7979 H   0  0  0  0  0  0
   24.2550   11.5617    8.6546 H   0  0  0  0  0  0
   25.9932   11.4095    8.2279 H   0  0  0  0  0  0
   24.2109   13.8788    7.7479 H   0  0  0  0  0  0
   27.4948   12.2614    7.9758 H   0  0  0  0  0  0
   28.3678   13.9503    7.8514 H   0  0  0  0  0  0
   25.2226   15.7777    7.5427 H   0  0  0  0  0  0
   23.9432    7.0738    3.8226 H   0  0  0  0  0  0
   26.8192    7.2619    3.5149 H   0  0  0  0  0  0
   25.6517    7.3761    2.1546 H   0  0  0  0  0  0
   26.9950    9.5549    3.7399 H   0  0  0  0  0  0
   26.6603    9.4587    1.9777 H   0  0  0  0  0  0
   24.3550   10.0310    2.2706 H   0  0  0  0  0  0
   25.0830   10.9730    3.6156 H   0  0  0  0  0  0
   27.1241   15.8739    7.6145 H   0  0  0  0  0  0
  1  2  1  0  0  0
  1 47  1  0  0  0
  1 48  1  0  0  0
  1 49  1  0  0  0
  2  3  1  0  0  0
  2  5  1  0  0  0
  2 50  1  0  0  0
  3  4  2  0  0  0
  3  6  1  0  0  0
  5 51  1  0  0  0
  5 52  1  0  0  0
  5 53  1  0  0  0
  6  7  1  0  0  0
  6 12  1  0  0  0
  7  8  1  0  0  0
  7 10  1  0  0  0
  7 54  1  0  0  0
  8  9  2  0  0  0
  8 13  1  0  0  0
 10 11  1  0  0  0
 10 55  1  0  0  0
 10 56  1  0  0  0
 11 12  1  0  0  0
 11 57  1  0  0  0
 11 58  1  0  0  0
 12 59  1  0  0  0
 12 60  1  0  0  0
 13 14  1  0  0  0
 13 61  1  0  0  0
 14 15  1  0  0  0
 14 17  1  0  0  0
 14 62  1  0  0  0
 15 16  2  0  0  0
 15 21  1  0  0  0
 17 18  1  0  0  0
 17 63  1  0  0  0
 17 64  1  0  0  0
 18 19  1  0  0  0
 18 20  2  0  0  0
 21 22  1  0  0  0
 21 65  1  0  0  0
 22 23  1  0  0  0
 22 25  1  0  0  0
 22 66  1  0  0  0
 23 24  2  0  0  0
 23 28  1  0  0  0
 25 26  1  0  0  0
 25 27  1  0  0  0
 25 67  1  0  0  0
 26 68  1  0  0  0
 27 69  1  0  0  0
 27 70  1  0  0  0
 27 71  1  0  0  0
 28 29  1  0  0  0
 28 72  1  0  0  0
 29 30  1  0  0  0
 29 32  1  0  0  0
 29 73  1  0  0  0
 30 31  2  0  0  0
 30 39  1  0  0  0
 32 33  1  0  0  0
 32 74  1  0  0  0
 32 75  1  0  0  0
 33 34  1  0  0  0
 33 76  1  0  0  0
 33 77  1  0  0  0
 34 35  1  0  0  0
 34 78  1  0  0  0
 34 79  1  0  0  0
 35 36  1  0  0  0
 35 80  1  0  0  0
 36 37  1  0  0  0
 36 38  2  0  0  0
 37 81  1  0  0  0
 37 82  1  0  0  0
 38 83  1  0  0  0
 38 91  1  0  0  0
 39 40  1  0  0  0
 39 45  1  0  0  0
 40 41  1  0  0  0
 40 43  1  0  0  0
 40 84  1  0  0  0
 41 42  2  0  0  0
 41 46  1  0  0  0
 43 44  1  0  0  0
 43 85  1  0  0  0
 43 86  1  0  0  0
 44 45  1  0  0  0
 44 87  1  0  0  0
 44 88  1  0  0  0
 45 89  1  0  0  0
 45 90  1  0  0  0
M  CHG  4   1   1  19  -1  38   1  46  -1
M  END
> <s_m_source_file>
../5a2k_ligand.sdf

> <i_m_source_file_index>
1

> <s_epik_input>
W05IMytdW0NAQEhdKFtDSDNdKUMoPU8pTjFbQ0BASF0oW0NIMl1bQ0gyXVtDSDJdMSlDKD1PKVtOSF1bQ0BASF0oW0NIMl1DKD1PKVtPSF0pQyg9TylbTkhdW0NAQEhdKFtDQEhdKFtPSF0pW0NIM10pQyg9TylbTkhdW0NASF0oQyg9TylOMltDQEhdKEMoPU8pW09IXSlbQ0gyXVtDSDJdW0NIMl0yKVtDSDJdW0NIMl1bQ0gyXVtOSF0vQyhbTkgyXSk9TlxbSF0=

> <s_epik_cmdline>
J2VwaWtfYXBwJywgJy1pbWFlJywgJ2xpZ2FuZF9wcm8ubWFlJywgJy1vbWFlJywgJ2xpZ2FuZF9wcmVwLm1hZScsICctbXMnLCAnMScsICctcGgnLCAnNycsICctcGh0JywgJzAuNScsICctbnQn

> <r_epik_Ionization_Penalty>
  0.1180

> <r_epik_Ionization_Penalty_Charging>
  0.1180

> <r_epik_Ionization_Penalty_Neutral>
  0.0000

> <r_epik_State_Penalty>
  0.1060

> <r_epik_Charging_Adjusted_Penalty>
0.224024695707662

> <i_epik_Tot_Q>
0

> <i_epik_Tot_abs_Q>
4

> <s_epik_Chemistry_Notes>
This compound has an imine and may undergo hydrolysis.

$$$$
