5a3h_ligand
                    3D
 Schrodinger Suite 2020-3.
 43 44  0  0  1  0            999 V2000
   62.5070   41.6540   35.0240 C   0  0  0  0  0  0
   61.0930   42.0430   34.7490 C   0  0  1  0  0  0
   61.0240   43.5370   34.5370 C   0  0  2  0  0  0
   61.6800   44.2340   35.7610 C   0  0  1  0  0  0
   63.1290   43.7630   35.8750 C   0  0  1  0  0  0
   63.7780   44.3540   37.1730 C   0  0  0  0  0  0
   60.7000   41.3620   33.5910 F   0  0  0  0  0  0
   59.6600   43.9120   34.4010 O   0  0  0  0  0  0
   61.6790   45.6440   35.4850 O   0  0  0  0  0  0
   63.1550   42.3410   36.0810 O   0  0  0  0  0  0
   63.0180   43.8560   38.2780 O   0  0  0  0  0  0
   61.2130   46.3670   36.6410 C   0  0  1  0  0  0
   61.4640   47.8370   36.2900 C   0  0  1  0  0  0
   60.9080   48.6850   37.4480 C   0  0  2  0  0  0
   59.4010   48.4100   37.5040 C   0  0  1  0  0  0
   59.2350   46.9030   37.8520 C   0  0  1  0  0  0
   57.7780   46.4790   37.9720 C   0  0  0  0  0  0
   62.8610   47.9710   36.2240 O   0  0  0  0  0  0
   61.1050   50.0790   37.0540 O   0  0  0  0  0  0
   58.9620   49.1990   38.6320 O   0  0  0  0  0  0
   59.8420   46.1910   36.7650 O   0  0  0  0  0  0
   57.1650   46.8180   36.7380 O   0  0  0  0  0  0
   62.5491   40.5868   35.2873 H   0  0  0  0  0  0
   63.1181   41.8348   34.1274 H   0  0  0  0  0  0
   60.4002   41.7345   35.5458 H   0  0  0  0  0  0
   61.4899   43.8447   33.5892 H   0  0  0  0  0  0
   61.1404   44.0691   36.7053 H   0  0  0  0  0  0
   63.6510   44.0058   34.9376 H   0  0  0  0  0  0
   64.8261   44.0269   37.2405 H   0  0  0  0  0  0
   63.7386   45.4526   37.1352 H   0  0  0  0  0  0
   59.0560   43.5010   33.5787 H   0  0  0  0  0  0
   63.2904   44.1397   39.3053 H   0  0  0  0  0  0
   61.6536   45.9824   37.5726 H   0  0  0  0  0  0
   61.0667   48.1656   35.3183 H   0  0  0  0  0  0
   61.3967   48.5093   38.4177 H   0  0  0  0  0  0
   58.8306   48.6901   36.6061 H   0  0  0  0  0  0
   59.7274   46.6359   38.7987 H   0  0  0  0  0  0
   57.7253   45.3958   38.1559 H   0  0  0  0  0  0
   57.3075   47.0162   38.8087 H   0  0  0  0  0  0
   63.4294   47.4319   35.4518 H   0  0  0  0  0  0
   62.1230   50.4836   36.9538 H   0  0  0  0  0  0
   59.0007   50.2972   38.5834 H   0  0  0  0  0  0
   56.0973   46.6072   36.5780 H   0  0  0  0  0  0
  1  2  1  0  0  0
  1 10  1  0  0  0
  1 23  1  0  0  0
  1 24  1  0  0  0
  2  3  1  0  0  0
  2  7  1  0  0  0
  2 25  1  0  0  0
  3  4  1  0  0  0
  3  8  1  0  0  0
  3 26  1  0  0  0
  4  5  1  0  0  0
  4  9  1  0  0  0
  4 27  1  0  0  0
  5  6  1  0  0  0
  5 10  1  0  0  0
  5 28  1  0  0  0
  6 11  1  0  0  0
  6 29  1  0  0  0
  6 30  1  0  0  0
  8 31  1  0  0  0
  9 12  1  0  0  0
 11 32  1  0  0  0
 12 13  1  0  0  0
 12 21  1  0  0  0
 12 33  1  0  0  0
 13 14  1  0  0  0
 13 18  1  0  0  0
 13 34  1  0  0  0
 14 15  1  0  0  0
 14 19  1  0  0  0
 14 35  1  0  0  0
 15 16  1  0  0  0
 15 20  1  0  0  0
 15 36  1  0  0  0
 16 17  1  0  0  0
 16 21  1  0  0  0
 16 37  1  0  0  0
 17 22  1  0  0  0
 17 38  1  0  0  0
 17 39  1  0  0  0
 18 40  1  0  0  0
 19 41  1  0  0  0
 20 42  1  0  0  0
 22 43  1  0  0  0
M  END
> <s_m_source_file>
../5a3h_ligand.sdf

> <i_m_source_file_index>
1

> <s_epik_input>
RltDQEhdMVtDSDJdT1tDQEhdKFtDSDJdW09IXSlbQ0BIXShbQ0BASF0xW09IXSlPW0NASF0yW0NASF0oW09IXSlbQ0BASF0oW09IXSlbQ0BIXShbT0hdKVtDQEhdKE8yKVtDSDJdW09IXQ==

> <s_epik_cmdline>
J2VwaWtfYXBwJywgJy1pbWFlJywgJ2xpZ2FuZF9wcm8ubWFlJywgJy1vbWFlJywgJ2xpZ2FuZF9wcmVwLm1hZScsICctbXMnLCAnMScsICctcGgnLCAnNycsICctcGh0JywgJzAuNScsICctbnQn

> <r_lp_tautomer_probability>
1

> <r_epik_Ionization_Penalty>
  0.0000

> <r_epik_Ionization_Penalty_Charging>
  0.0000

> <r_epik_Ionization_Penalty_Neutral>
  0.0000

> <r_epik_State_Penalty>
 -0.0000

> <r_epik_Charging_Adjusted_Penalty>
0

> <i_epik_Tot_Q>
0

> <i_epik_Tot_abs_Q>
0

> <s_epik_Chemistry_Notes>
This compound contains an acetal/aminal-like group ( X-CH(R)-Y where X, Y are N, S, or O) that may be acid/base labile, releasing an aldehyde.

$$$$
