5a3o_ligand
                    3D
 Schrodinger Suite 2020-3.
 44 45  0  0  1  0            999 V2000
  -18.6480  -11.6050   21.4630 C   0  0  1  0  0  0
  -18.0870  -10.7670   20.3080 C   0  0  2  0  0  0
  -17.4030  -11.5810   19.2280 C   0  0  2  0  0  0
  -16.3730  -12.5020   19.8220 C   0  0  1  0  0  0
  -17.1100  -13.3610   20.8540 C   0  0  1  0  0  0
  -16.2280  -14.3910   21.5240 C   0  0  0  0  0  0
  -20.5280  -12.9430   21.9860 C   0  0  0  0  0  0
  -19.7620  -12.3380   20.9270 O   0  0  0  0  0  0
  -17.1390   -9.8370   20.7920 O   0  0  0  0  0  0
  -16.7400  -10.7040   18.3030 O   0  0  0  0  0  0
  -15.7600  -13.2640   18.7790 O   0  0  0  0  0  0
  -17.6290  -12.5110   21.9030 O   0  0  0  0  0  0
  -16.9310  -16.1360   23.0740 C   0  0  0  0  0  0
  -17.1520  -15.4250   22.0000 N   0  0  0  0  0  0
  -15.9600  -15.9060   23.7940 O   0  0  0  0  0  0
  -17.8480  -17.2250   23.4370 C   0  0  0  0  0  0
  -17.5210  -18.0380   24.4700 C   0  0  0  0  0  0
  -18.2630  -19.2840   24.8150 C   0  0  0  0  0  0
  -17.8420  -20.0280   25.9260 C   0  0  0  0  0  0
  -18.5480  -21.1790   26.2900 C   0  0  0  0  0  0
  -19.6640  -21.5430   25.5460 C   0  0  0  0  0  0
  -20.0840  -20.7890   24.4740 C   0  0  0  0  0  0
  -19.3960  -19.6480   24.1120 C   0  0  0  0  0  0
  -18.9773  -11.0390   22.3469 H   0  0  0  0  0  0
  -18.9241  -10.2027   19.8711 H   0  0  0  0  0  0
  -18.1561  -12.1557   18.6690 H   0  0  0  0  0  0
  -15.5148  -11.9814   20.2719 H   0  0  0  0  0  0
  -17.9366  -13.8712   20.3378 H   0  0  0  0  0  0
  -15.5109  -14.7914   20.7922 H   0  0  0  0  0  0
  -15.6806  -13.9207   22.3542 H   0  0  0  0  0  0
  -21.3743  -13.4982   21.5553 H   0  0  0  0  0  0
  -20.9076  -12.1591   22.6579 H   0  0  0  0  0  0
  -19.8871  -13.6337   22.5536 H   0  0  0  0  0  0
  -17.4171   -9.1330   21.5901 H   0  0  0  0  0  0
  -17.3173   -9.9452   17.7543 H   0  0  0  0  0  0
  -15.2020  -12.7536   17.9801 H   0  0  0  0  0  0
  -18.0798  -15.6308   21.4461 H   0  0  0  0  0  0
  -18.7863  -17.3861   22.8860 H   0  0  0  0  0  0
  -16.6622  -17.7930   25.1122 H   0  0  0  0  0  0
  -16.9718  -19.7121   26.5013 H   0  0  0  0  0  0
  -18.2288  -21.7797   27.1417 H   0  0  0  0  0  0
  -20.2170  -22.4425   25.8166 H   0  0  0  0  0  0
  -20.9641  -21.0941   23.9080 H   0  0  0  0  0  0
  -19.7438  -19.0387   23.2778 H   0  0  0  0  0  0
  1  2  1  0  0  0
  1  8  1  0  0  0
  1 12  1  0  0  0
  1 24  1  0  0  0
  2  3  1  0  0  0
  2  9  1  0  0  0
  2 25  1  0  0  0
  3  4  1  0  0  0
  3 10  1  0  0  0
  3 26  1  0  0  0
  4  5  1  0  0  0
  4 11  1  0  0  0
  4 27  1  0  0  0
  5  6  1  0  0  0
  5 12  1  0  0  0
  5 28  1  0  0  0
  6 14  1  0  0  0
  6 29  1  0  0  0
  6 30  1  0  0  0
  7  8  1  0  0  0
  7 31  1  0  0  0
  7 32  1  0  0  0
  7 33  1  0  0  0
  9 34  1  0  0  0
 10 35  1  0  0  0
 11 36  1  0  0  0
 13 14  1  0  0  0
 13 15  2  0  0  0
 13 16  1  0  0  0
 14 37  1  0  0  0
 16 17  2  0  0  0
 16 38  1  0  0  0
 17 18  1  0  0  0
 17 39  1  0  0  0
 18 19  2  0  0  0
 18 23  1  0  0  0
 19 20  1  0  0  0
 19 40  1  0  0  0
 20 21  2  0  0  0
 20 41  1  0  0  0
 21 22  1  0  0  0
 21 42  1  0  0  0
 22 23  2  0  0  0
 22 43  1  0  0  0
 23 44  1  0  0  0
M  END
> <s_m_source_file>
../5a3o_ligand.sdf

> <i_m_source_file_index>
1

> <s_epik_input>
W0NIM11PW0NAQEhdMVtDQEBIXShbT0hdKVtDQEBIXShbT0hdKVtDQEhdKFtPSF0pW0NASF0oTzEpW0NIMl1bTkhdQyg9TykvW0NIXT1bQ0hdL2MyW2NIXVtjSF1bY0hdW2NIXVtjSF0y

> <s_epik_cmdline>
J2VwaWtfYXBwJywgJy1pbWFlJywgJ2xpZ2FuZF9wcm8ubWFlJywgJy1vbWFlJywgJ2xpZ2FuZF9wcmVwLm1hZScsICctbXMnLCAnMScsICctcGgnLCAnNycsICctcGh0JywgJzAuNScsICctbnQn

> <r_lp_tautomer_probability>
1

> <r_epik_Ionization_Penalty>
  0.0000

> <r_epik_Ionization_Penalty_Charging>
  0.0000

> <r_epik_Ionization_Penalty_Neutral>
  0.0000

> <r_epik_State_Penalty>
 -0.0000

> <r_epik_Charging_Adjusted_Penalty>
0

> <i_epik_Tot_Q>
0

> <i_epik_Tot_abs_Q>
0

> <s_epik_Chemistry_Notes>
This compound contains an acetal/aminal-like group ( X-CH(R)-Y where X, Y are N, S, or O) that may be acid/base labile, releasing an aldehyde.

$$$$
