5a3u_ligand
                    3D
 Schrodinger Suite 2020-3.
 27 29  0  0  1  0            999 V2000
  -21.2720   25.3900   -1.3770 O   0  0  0  0  0  0
  -19.7650   31.9570    1.7370 O   0  0  0  0  0  0
  -21.3650   27.0620   -2.7520 O   0  5  0  0  0  0
  -19.5040   34.9890    4.6130 C   0  0  0  0  0  0
  -21.1980   28.8740   -0.6920 C   0  0  0  0  0  0
  -21.0220   29.7310    0.3900 C   0  0  0  0  0  0
  -20.1870   34.0610    3.9680 C   0  0  0  0  0  0
  -20.7850   27.0080    0.7490 C   0  0  0  0  0  0
  -20.4840   30.7120    4.7280 C   0  0  0  0  0  0
  -18.6220   34.3320    5.3590 N   0  0  0  0  0  0
  -20.6120   27.8930    1.8230 N   0  0  0  0  0  0
  -18.7650   33.1310    5.1770 N   0  0  0  0  0  0
  -20.7700   29.6930    3.9130 N   0  0  0  0  0  0
  -21.2480   26.6230   -1.5840 C   0  0  0  0  0  0
  -21.0790   27.5010   -0.5150 C   0  0  0  0  0  0
  -20.7260   29.2210    1.6520 C   0  0  0  0  0  0
  -20.0650   31.7040    3.9590 C   0  0  3  0  0  0
  -20.1000   31.2820    2.7100 C   0  0  0  0  0  0
  -19.6700   32.9060    4.3680 N   0  0  0  0  0  0
  -20.5480   30.0250    2.7050 N   0  0  0  0  0  0
  -19.6361   36.0690    4.5472 H   0  0  0  0  0  0
  -21.4289   29.2792   -1.6772 H   0  0  0  0  0  0
  -21.1163   30.8078    0.2492 H   0  0  0  0  0  0
  -21.0011   34.2114    3.2589 H   0  0  0  0  0  0
  -20.6887   25.9338    0.9066 H   0  0  0  0  0  0
  -20.6203   30.6026    5.8140 H   0  0  0  0  0  0
  -19.0312   31.3402    4.0530 H   0  0  0  0  0  0
  1 14  2  0  0  0
  2 18  2  0  0  0
  3 14  1  0  0  0
  4  7  2  0  0  0
  4 10  1  0  0  0
  4 21  1  0  0  0
  5  6  2  0  0  0
  5 15  1  0  0  0
  5 22  1  0  0  0
  6 16  1  0  0  0
  6 23  1  0  0  0
  7 19  1  0  0  0
  7 24  1  0  0  0
  8 11  1  0  0  0
  8 15  2  0  0  0
  8 25  1  0  0  0
  9 13  2  0  0  0
  9 17  1  0  0  0
  9 26  1  0  0  0
 10 12  2  0  0  0
 11 16  2  0  0  0
 12 19  1  0  0  0
 13 20  1  0  0  0
 14 15  1  0  0  0
 16 20  1  0  0  0
 17 18  1  0  0  0
 17 19  1  0  0  0
 17 27  1  0  0  0
 18 20  1  0  0  0
M  CHG  1   3  -1
M  END
> <s_m_source_file>
../5a3u_ligand.sdf

> <i_m_source_file_index>
1

> <s_epik_input>
Tz1DKFtPSF0pYzFbY0hdW2NIXWMobltjSF0xKU4oQzI9TylOPVtDSF1bQ0hdMm4zW2NIXVtjSF1ubjM=

> <s_epik_cmdline>
J2VwaWtfYXBwJywgJy1pbWFlJywgJ2xpZ2FuZF9wcm8ubWFlJywgJy1vbWFlJywgJ2xpZ2FuZF9wcmVwLm1hZScsICctbXMnLCAnMScsICctcGgnLCAnNycsICctcGh0JywgJzAuNScsICctbnQn

> <r_lp_tautomer_probability>
1

> <r_epik_Ionization_Penalty>
  0.0006

> <r_epik_Ionization_Penalty_Charging>
  0.0001

> <r_epik_Ionization_Penalty_Neutral>
  0.0005

> <r_epik_State_Penalty>
 -0.0000

> <r_epik_Charging_Adjusted_Penalty>
7.84077353112319e-05

> <i_epik_Tot_Q>
-1

> <i_epik_Tot_abs_Q>
1

> <s_epik_Chemistry_Notes>
This compound has an imine and may undergo hydrolysis.

$$$$
