5a46_ligand
                    3D
 Schrodinger Suite 2020-3.
 54 58  0  0  1  0            999 V2000
   81.1360    5.2080    1.2470 C   0  0  0  0  0  0
   81.4500    3.3500    2.7520 C   0  0  0  0  0  0
   82.1710    2.8520    3.9900 C   0  0  0  0  0  0
   84.1080    4.2300    3.3330 C   0  0  0  0  0  0
   83.3230    4.6830    2.1190 C   0  0  0  0  0  0
   84.4190    2.2460    4.7480 C   0  0  0  0  0  0
   86.9490    1.3880    8.4260 C   0  0  0  0  0  0
   86.7990    0.3560    7.6130 N   0  0  0  0  0  0
   85.5020    0.1830    5.4460 C   0  0  0  0  0  0
   84.7050    0.8830    4.5550 C   0  0  0  0  0  0
   87.8200    1.3410    9.6160 C   0  0  1  0  0  0
   87.6820    2.3090   10.6930 C   0  0  1  0  0  0
   88.2060    2.8300   13.1540 C   0  0  0  0  0  0
   88.8170    2.5310   14.3500 C   0  0  0  0  0  0
   89.5360    1.3560   14.4520 C   0  0  0  0  0  0
   88.8430   -0.6660    8.9690 O   0  0  0  0  0  0
   81.8900    4.6970    2.4010 N   0  3  0  0  0  0
   83.6270    2.9320    3.8220 N   0  0  0  0  0  0
   84.9320    2.8980    5.8800 C   0  0  0  0  0  0
   85.7190    2.1820    6.7780 C   0  0  0  0  0  0
   86.3840    2.5290    7.9450 N   0  3  0  0  0  0
   86.0030    0.8340    6.5720 C   0  0  0  0  0  0
   86.9620    3.4580   10.5810 N   0  3  0  0  0  0
   88.2880    2.0310   12.0120 C   0  0  0  0  0  0
   87.5300    3.9960   13.0700 F   0  0  0  0  0  0
   89.6510    0.5110   13.3650 C   0  0  0  0  0  0
   89.0660    0.8450   12.1410 C   0  0  0  0  0  0
   89.2230   -0.0030   11.0520 N   0  0  0  0  0  0
   88.6910    0.2000    9.8270 C   0  0  0  0  0  0
   80.0615    5.2092    1.4825 H   0  0  0  0  0  0
   81.3195    4.5635    0.3746 H   0  0  0  0  0  0
   81.4629    6.2336    1.0205 H   0  0  0  0  0  0
   81.6625    2.6770    1.9083 H   0  0  0  0  0  0
   80.3666    3.3695    2.9415 H   0  0  0  0  0  0
   81.8824    3.4675    4.8548 H   0  0  0  0  0  0
   81.8957    1.8037    4.1779 H   0  0  0  0  0  0
   85.1709    4.1328    3.0670 H   0  0  0  0  0  0
   83.9979    4.9711    4.1384 H   0  0  0  0  0  0
   83.6379    5.6985    1.8367 H   0  0  0  0  0  0
   83.5122    3.9945    1.2822 H   0  0  0  0  0  0
   85.7351   -0.8668    5.2682 H   0  0  0  0  0  0
   84.2919    0.3674    3.6880 H   0  0  0  0  0  0
   88.5394    1.9978    9.1051 H   0  0  0  0  0  0
   87.5210    2.9597    9.8209 H   0  0  0  0  0  0
   88.7353    3.2081   15.2003 H   0  0  0  0  0  0
   90.0153    1.0940   15.3953 H   0  0  0  0  0  0
   81.7021    5.3654    3.2542 H   0  0  0  0  0  0
   84.7169    3.9523    6.0540 H   0  0  0  0  0  0
   86.5680    3.5455    9.5577 H   0  0  0  0  0  0
   87.6101    4.3196   10.7993 H   0  0  0  0  0  0
   86.1258    3.4378   11.2954 H   0  0  0  0  0  0
   90.2027   -0.4239   13.4632 H   0  0  0  0  0  0
   89.8192   -0.9220   11.1520 H   0  0  0  0  0  0
   86.5140    3.4777    8.4864 H   0  0  0  0  0  0
  1 17  1  0  0  0
  1 30  1  0  0  0
  1 31  1  0  0  0
  1 32  1  0  0  0
  2  3  1  0  0  0
  2 17  1  0  0  0
  2 33  1  0  0  0
  2 34  1  0  0  0
  3 18  1  0  0  0
  3 35  1  0  0  0
  3 36  1  0  0  0
  4  5  1  0  0  0
  4 18  1  0  0  0
  4 37  1  0  0  0
  4 38  1  0  0  0
  5 17  1  0  0  0
  5 39  1  0  0  0
  5 40  1  0  0  0
  6 10  2  0  0  0
  6 18  1  0  0  0
  6 19  1  0  0  0
  7  8  2  0  0  0
  7 11  1  0  0  0
  7 21  1  0  0  0
  8 22  1  0  0  0
  9 10  1  0  0  0
  9 22  2  0  0  0
  9 41  1  0  0  0
 10 42  1  0  0  0
 11 12  1  0  0  0
 11 29  1  0  0  0
 11 43  1  0  0  0
 12 23  1  0  0  0
 12 24  1  0  0  0
 12 44  1  0  0  0
 13 14  2  0  0  0
 13 24  1  0  0  0
 13 25  1  0  0  0
 14 15  1  0  0  0
 14 45  1  0  0  0
 15 26  2  0  0  0
 15 46  1  0  0  0
 16 29  2  0  0  0
 17 47  1  0  0  0
 19 20  2  0  0  0
 19 48  1  0  0  0
 20 21  1  0  0  0
 20 22  1  0  0  0
 21 54  1  0  0  0
 23 49  1  0  0  0
 23 50  1  0  0  0
 23 51  1  0  0  0
 24 27  2  0  0  0
 26 27  1  0  0  0
 26 52  1  0  0  0
 27 28  1  0  0  0
 28 29  1  0  0  0
 28 53  1  0  0  0
M  CHG  3  17   1  21   1  23   1
M  END
> <s_m_source_file>
../5a46_ligand.sdf

> <i_m_source_file_index>
1

> <s_epik_input>
W0NIM11bTkgrXTFbQ0gyXVtDSDJdTihbQ0gyXVtDSDJdMSljKFtjSF0yKVtjSF1bY0hdYyhjMjMpbmMoW25IXTMpW0NAQEhdKFtDQEhdNFtOSDMrXSlDKD1PKVtOSF1jKGM0NSlbY0hdW2NIXVtjSF1jNUY=

> <s_epik_cmdline>
J2VwaWtfYXBwJywgJy1pbWFlJywgJ2xpZ2FuZF9wcm8ubWFlJywgJy1vbWFlJywgJ2xpZ2FuZF9wcmVwLm1hZScsICctbXMnLCAnMScsICctcGgnLCAnNycsICctcGh0JywgJzAuNScsICctbnQn

> <r_epik_Ionization_Penalty>
  0.2004

> <r_epik_Ionization_Penalty_Charging>
  0.2000

> <r_epik_Ionization_Penalty_Neutral>
  0.0004

> <r_epik_State_Penalty>
  0.1708

> <r_epik_Charging_Adjusted_Penalty>
0.370822376383379

> <i_epik_Tot_Q>
3

> <i_epik_Tot_abs_Q>
3

> <s_epik_Chemistry_Notes>
This compound has an imine and may undergo hydrolysis.

$$$$
