5a4c_ligand
                    3D
 Schrodinger Suite 2020-3.
 77 79  0  0  1  0            999 V2000
   86.0320    1.9350    2.4060 C   0  0  0  0  0  0
   83.9840    0.9240    3.4680 N   0  3  0  0  0  0
   86.5190    5.8110   14.0580 O   0  0  0  0  0  0
   85.1410    0.7350    2.5630 C   0  0  0  0  0  0
   86.5840    0.0890    7.6370 N   0  0  0  0  0  0
   88.5870    0.0970   17.7770 O   0  0  0  0  0  0
   83.0190   -0.1950    3.5120 C   0  0  0  0  0  0
   88.0270   -0.7640    9.2080 N   0  0  0  0  0  0
   91.9740    3.3320   16.3820 O   0  0  0  0  0  0
   81.5820    0.2370    3.7010 C   0  0  0  0  0  0
   87.2210    2.5790   11.5060 N   0  0  0  0  0  0
   84.3660    1.4020    4.8140 C   0  0  0  0  0  0
   86.9140    1.3850    9.5340 N   0  0  0  0  0  0
   85.3430    0.5230    5.5860 C   0  0  0  0  0  0
   87.2740    3.7270   13.5340 N   0  0  0  0  0  0
   85.6680    1.0140    6.9920 C   0  0  0  0  0  0
   86.1580    4.9800   11.9620 N   0  0  0  0  0  0
   87.1990    0.2440    8.8280 C   0  0  0  0  0  0
   88.5960   -0.6200   10.3820 C   0  0  0  0  0  0
   88.4530    0.5110   11.1830 C   0  0  0  0  0  0
   89.0190    0.6440   12.4650 C   0  0  0  0  0  0
   88.6700    1.7020   13.2650 C   0  0  0  0  0  0
   87.7350    2.6610   12.7290 C   0  0  0  0  0  0
   87.5580    1.5010   10.7360 C   0  0  0  0  0  0
   86.6420    4.9090   13.2290 C   0  0  0  0  0  0
   85.2180    5.9950   11.4320 C   0  0  0  0  0  0
   84.9470    5.6800    9.9660 C   0  0  0  0  0  0
   85.8570    7.3730   11.5440 C   0  0  0  0  0  0
   83.9080    5.9540   12.2200 C   0  0  0  0  0  0
   89.2190    1.7590   14.6510 C   0  0  0  0  0  0
   90.3300    2.5490   14.9550 C   0  0  0  0  0  0
   90.8630    2.5430   16.2350 C   0  0  0  0  0  0
   90.2960    1.7690   17.2380 C   0  0  0  0  0  0
   89.1920    0.9900   16.9350 C   0  0  0  0  0  0
   88.6450    0.9910   15.6600 C   0  0  0  0  0  0
   89.3140   -0.3710   18.9110 C   0  0  0  0  0  0
   92.7140    3.2440   17.6010 C   0  0  0  0  0  0
   86.8557    1.6926    1.7184 H   0  0  0  0  0  0
   86.4436    2.2168    3.3864 H   0  0  0  0  0  0
   85.4488    2.7738    1.9983 H   0  0  0  0  0  0
   83.4201    1.7394    2.9915 H   0  0  0  0  0  0
   84.7294    0.4532    1.5826 H   0  0  0  0  0  0
   85.7242   -0.1039    2.9707 H   0  0  0  0  0  0
   86.8426   -0.8609    7.1463 H   0  0  0  0  0  0
   83.0667   -0.7576    2.5680 H   0  0  0  0  0  0
   83.2695   -0.8625    4.3497 H   0  0  0  0  0  0
   80.9322   -0.6503    3.7228 H   0  0  0  0  0  0
   81.2829    0.8902    2.8680 H   0  0  0  0  0  0
   81.4857    0.7853    4.6497 H   0  0  0  0  0  0
   84.8452    2.3886    4.7304 H   0  0  0  0  0  0
   83.4673    1.4830    5.4431 H   0  0  0  0  0  0
   84.9220   -0.4877    5.6918 H   0  0  0  0  0  0
   86.2965    0.4678    5.0404 H   0  0  0  0  0  0
   87.4040    3.6880   14.6256 H   0  0  0  0  0  0
   84.7395    1.0791    7.5781 H   0  0  0  0  0  0
   86.1337    2.0087    6.9312 H   0  0  0  0  0  0
   86.5326    4.1811   11.3051 H   0  0  0  0  0  0
   89.2181   -1.4346   10.7528 H   0  0  0  0  0  0
   89.7359   -0.0951   12.8225 H   0  0  0  0  0  0
   85.8919    5.7107    9.4036 H   0  0  0  0  0  0
   84.2505    6.4249    9.5536 H   0  0  0  0  0  0
   84.5030    4.6771    9.8825 H   0  0  0  0  0  0
   86.7973    7.3886   10.9733 H   0  0  0  0  0  0
   86.0657    7.5956   12.6008 H   0  0  0  0  0  0
   85.1695    8.1300   11.1387 H   0  0  0  0  0  0
   83.4576    4.9544   12.1307 H   0  0  0  0  0  0
   83.2140    6.7063   11.8169 H   0  0  0  0  0  0
   84.1102    6.1718   13.2791 H   0  0  0  0  0  0
   90.7799    3.1729   14.1827 H   0  0  0  0  0  0
   90.7120    1.7743   18.2455 H   0  0  0  0  0  0
   87.7622    0.3879   15.4476 H   0  0  0  0  0  0
   88.6910   -1.0766   19.4802 H   0  0  0  0  0  0
   89.5817    0.4817   19.5523 H   0  0  0  0  0  0
   90.2300   -0.8790   18.5751 H   0  0  0  0  0  0
   93.5691    3.9348   17.5615 H   0  0  0  0  0  0
   93.0796    2.2152   17.7345 H   0  0  0  0  0  0
   92.0630    3.5143   18.4455 H   0  0  0  0  0  0
  1  4  1  0  0  0
  1 38  1  0  0  0
  1 39  1  0  0  0
  1 40  1  0  0  0
  2  4  1  0  0  0
  2  7  1  0  0  0
  2 12  1  0  0  0
  2 41  1  0  0  0
  3 25  2  0  0  0
  4 42  1  0  0  0
  4 43  1  0  0  0
  5 16  1  0  0  0
  5 18  1  0  0  0
  5 44  1  0  0  0
  6 34  1  0  0  0
  6 36  1  0  0  0
  7 10  1  0  0  0
  7 45  1  0  0  0
  7 46  1  0  0  0
  8 18  2  0  0  0
  8 19  1  0  0  0
  9 32  1  0  0  0
  9 37  1  0  0  0
 10 47  1  0  0  0
 10 48  1  0  0  0
 10 49  1  0  0  0
 11 23  2  0  0  0
 11 24  1  0  0  0
 12 14  1  0  0  0
 12 50  1  0  0  0
 12 51  1  0  0  0
 13 18  1  0  0  0
 13 24  2  0  0  0
 14 16  1  0  0  0
 14 52  1  0  0  0
 14 53  1  0  0  0
 15 23  1  0  0  0
 15 25  1  0  0  0
 15 54  1  0  0  0
 16 55  1  0  0  0
 16 56  1  0  0  0
 17 25  1  0  0  0
 17 26  1  0  0  0
 17 57  1  0  0  0
 19 20  2  0  0  0
 19 58  1  0  0  0
 20 21  1  0  0  0
 20 24  1  0  0  0
 21 22  2  0  0  0
 21 59  1  0  0  0
 22 23  1  0  0  0
 22 30  1  0  0  0
 26 27  1  0  0  0
 26 28  1  0  0  0
 26 29  1  0  0  0
 27 60  1  0  0  0
 27 61  1  0  0  0
 27 62  1  0  0  0
 28 63  1  0  0  0
 28 64  1  0  0  0
 28 65  1  0  0  0
 29 66  1  0  0  0
 29 67  1  0  0  0
 29 68  1  0  0  0
 30 31  2  0  0  0
 30 35  1  0  0  0
 31 32  1  0  0  0
 31 69  1  0  0  0
 32 33  2  0  0  0
 33 34  1  0  0  0
 33 70  1  0  0  0
 34 35  2  0  0  0
 35 71  1  0  0  0
 36 72  1  0  0  0
 36 73  1  0  0  0
 36 74  1  0  0  0
 37 75  1  0  0  0
 37 76  1  0  0  0
 37 77  1  0  0  0
M  CHG  1   2   1
M  END
> <s_m_source_file>
../5a4c_ligand.sdf

> <i_m_source_file_index>
1

> <s_epik_input>
W0NIM11bQ0gyXVtOSCtdKFtDSDJdW0NIM10pW0NIMl1bQ0gyXVtDSDJdW05IXWMobltjSF0xKW5jKGMxMiluYyhbTkhdQyg9TylbTkhdQyhbQ0gzXSkoW0NIM10pW0NIM10pYyhbY0hdMiktYzNbY0hdYyhPW0NIM10pW2NIXWMoW2NIXTMpT1tDSDNd

> <s_epik_cmdline>
J2VwaWtfYXBwJywgJy1pbWFlJywgJ2xpZ2FuZF9wcm8ubWFlJywgJy1vbWFlJywgJ2xpZ2FuZF9wcmVwLm1hZScsICctbXMnLCAnMScsICctcGgnLCAnNycsICctcGh0JywgJzAuNScsICctbnQn

> <r_lp_tautomer_probability>
1

> <r_epik_Ionization_Penalty>
  0.0301

> <r_epik_Ionization_Penalty_Charging>
  0.0013

> <r_epik_Ionization_Penalty_Neutral>
  0.0288

> <r_epik_State_Penalty>
  0.1093

> <r_epik_Charging_Adjusted_Penalty>
0.1106071362108

> <i_epik_Tot_Q>
1

> <i_epik_Tot_abs_Q>
1

$$$$
