5a5p_ligand
                    3D
 Schrodinger Suite 2020-3.
 38 39  0  0  1  0            999 V2000
  -31.5890   42.1200   16.5490 C   0  0  0  0  0  0
  -30.7080   42.1660   15.3850 N   0  3  0  0  0  0
  -29.3150   42.0880   15.8140 C   0  0  0  0  0  0
  -30.9580   43.3760   14.5980 C   0  0  0  0  0  0
  -30.3610   43.2990   13.2070 C   0  0  0  0  0  0
  -29.0510   43.9300   13.1850 N   0  0  0  0  0  0
  -28.6960   44.9820   12.3760 C   0  0  0  0  0  0
  -29.5250   46.0820   12.1440 C   0  0  0  0  0  0
  -29.1220   47.1250   11.3260 C   0  0  0  0  0  0
  -27.8770   47.1040   10.7270 C   0  0  0  0  0  0
  -27.0080   46.0300   10.9350 C   0  0  0  0  0  0
  -25.7010   45.9270   10.3500 C   0  0  0  0  0  0
  -24.8810   44.8750   10.5700 C   0  0  0  0  0  0
  -23.5150   44.7970    9.9440 C   0  0  0  0  0  0
  -25.3240   43.7840   11.4380 C   0  0  0  0  0  0
  -24.6550   42.7850   11.7010 O   0  0  0  0  0  0
  -26.5670   43.9080   11.9670 N   0  0  0  0  0  0
  -27.4270   44.9750   11.7640 C   0  0  0  0  0  0
  -31.3865   41.2058   17.1262 H   0  0  0  0  0  0
  -32.6373   42.1185   16.2156 H   0  0  0  0  0  0
  -31.4068   43.0011   17.1818 H   0  0  0  0  0  0
  -30.9172   41.2988   14.7414 H   0  0  0  0  0  0
  -29.1629   41.1701   16.4007 H   0  0  0  0  0  0
  -29.0727   42.9638   16.4339 H   0  0  0  0  0  0
  -28.6597   42.0714   14.9307 H   0  0  0  0  0  0
  -32.0424   43.5273   14.4926 H   0  0  0  0  0  0
  -30.5147   44.2436   15.1086 H   0  0  0  0  0  0
  -30.2571   42.2448   12.9105 H   0  0  0  0  0  0
  -31.0211   43.8166   12.4955 H   0  0  0  0  0  0
  -28.2547   43.5675   13.8517 H   0  0  0  0  0  0
  -30.5071   46.1205   12.6152 H   0  0  0  0  0  0
  -29.7915   47.9678   11.1538 H   0  0  0  0  0  0
  -27.5705   47.9317   10.0873 H   0  0  0  0  0  0
  -25.3551   46.7313    9.7008 H   0  0  0  0  0  0
  -23.3430   45.6911    9.3267 H   0  0  0  0  0  0
  -23.4516   43.8981    9.3132 H   0  0  0  0  0  0
  -22.7519   44.7448   10.7345 H   0  0  0  0  0  0
  -26.9685   43.1183   12.6191 H   0  0  0  0  0  0
  1  2  1  0  0  0
  1 19  1  0  0  0
  1 20  1  0  0  0
  1 21  1  0  0  0
  2  3  1  0  0  0
  2  4  1  0  0  0
  2 22  1  0  0  0
  3 23  1  0  0  0
  3 24  1  0  0  0
  3 25  1  0  0  0
  4  5  1  0  0  0
  4 26  1  0  0  0
  4 27  1  0  0  0
  5  6  1  0  0  0
  5 28  1  0  0  0
  5 29  1  0  0  0
  6  7  1  0  0  0
  6 30  1  0  0  0
  7  8  2  0  0  0
  7 18  1  0  0  0
  8  9  1  0  0  0
  8 31  1  0  0  0
  9 10  2  0  0  0
  9 32  1  0  0  0
 10 11  1  0  0  0
 10 33  1  0  0  0
 11 12  1  0  0  0
 11 18  2  0  0  0
 12 13  2  0  0  0
 12 34  1  0  0  0
 13 14  1  0  0  0
 13 15  1  0  0  0
 14 35  1  0  0  0
 14 36  1  0  0  0
 14 37  1  0  0  0
 15 16  2  0  0  0
 15 17  1  0  0  0
 17 18  1  0  0  0
 17 38  1  0  0  0
M  CHG  1   2   1
M  END
> <s_m_source_file>
../5a5p_ligand.sdf

> <i_m_source_file_index>
1

> <s_epik_input>
W0NIM11bTkgrXShbQ0gzXSlbQ0gyXVtDSDJdW05IXWMoW2NIXVtjSF1bY0hdMSljKGMxMilbbkhdYyg9TyljKFtjSF0yKVtDSDNd

> <s_epik_cmdline>
J2VwaWtfYXBwJywgJy1pbWFlJywgJ2xpZ2FuZF9wcm8ubWFlJywgJy1vbWFlJywgJ2xpZ2FuZF9wcmVwLm1hZScsICctbXMnLCAnMScsICctcGgnLCAnNycsICctcGh0JywgJzAuNScsICctbnQn

> <r_lp_tautomer_probability>
1

> <r_epik_Ionization_Penalty>
  0.0013

> <r_epik_Ionization_Penalty_Charging>
  0.0013

> <r_epik_Ionization_Penalty_Neutral>
  0.0000

> <r_epik_State_Penalty>
 -0.0000

> <r_epik_Charging_Adjusted_Penalty>
0.00130411716227902

> <i_epik_Tot_Q>
1

> <i_epik_Tot_abs_Q>
1

$$$$
