5a5r_ligand
                    3D
 Schrodinger Suite 2020-3.
 51 54  0  0  1  0            999 V2000
  -29.2160   50.9000    6.5020 C   0  0  0  0  0  0
  -29.4990   49.7480    7.2950 O   0  0  0  0  0  0
  -28.6140   49.4210    8.2970 C   0  0  0  0  0  0
  -27.5160   50.1930    8.6400 C   0  0  0  0  0  0
  -26.6720   49.8490    9.6190 N   0  0  0  0  0  0
  -26.9160   48.7140   10.2840 C   0  0  0  0  0  0
  -27.9730   47.8540   10.0060 C   0  0  0  0  0  0
  -28.8460   48.2460    8.9950 C   0  0  0  0  0  0
  -28.1900   46.6140   10.8060 C   0  0  0  0  0  0
  -29.4040   46.3940   11.4320 C   0  0  0  0  0  0
  -29.6980   45.3370   12.2010 N   0  0  0  0  0  0
  -28.7650   44.3910   12.4250 C   0  0  0  0  0  0
  -29.1190   43.3460   13.2030 N   0  0  0  0  0  0
  -30.3830   43.2540   13.9310 C   0  0  0  0  0  0
  -31.3300   42.3090   13.2110 C   0  0  0  0  0  0
  -32.5760   42.0340   14.0240 C   0  0  0  0  0  0
  -32.2060   41.4940   15.3370 N   0  3  0  0  0  0
  -31.4090   42.4650   16.0970 C   0  0  0  0  0  0
  -30.1290   42.7810   15.3510 C   0  0  0  0  0  0
  -27.4850   44.5510   11.8190 C   0  0  0  0  0  0
  -26.5190   43.5860   12.0370 N   0  0  0  0  0  0
  -25.2650   43.6100   11.5310 C   0  0  0  0  0  0
  -24.4960   42.6880   11.8010 O   0  0  0  0  0  0
  -24.9280   44.7490   10.6880 C   0  0  0  0  0  0
  -23.5500   44.8290   10.0930 C   0  0  0  0  0  0
  -25.8590   45.7110   10.4560 C   0  0  0  0  0  0
  -27.1850   45.6560   11.0210 C   0  0  0  0  0  0
  -30.0075   51.0305    5.7494 H   0  0  0  0  0  0
  -28.2477   50.7685    5.9968 H   0  0  0  0  0  0
  -29.1746   51.7890    7.1485 H   0  0  0  0  0  0
  -27.3328   51.1165    8.0908 H   0  0  0  0  0  0
  -26.2418   48.4456   11.0974 H   0  0  0  0  0  0
  -29.7115   47.6294    8.7524 H   0  0  0  0  0  0
  -30.1845   47.1411   11.2879 H   0  0  0  0  0  0
  -28.3849   42.5295   13.2702 H   0  0  0  0  0  0
  -30.8180   44.2641   13.9523 H   0  0  0  0  0  0
  -31.6347   42.7550   12.2527 H   0  0  0  0  0  0
  -30.8213   41.3517   13.0246 H   0  0  0  0  0  0
  -33.1379   42.9696   14.1616 H   0  0  0  0  0  0
  -33.2050   41.3029   13.4950 H   0  0  0  0  0  0
  -33.1171   41.2606   15.9075 H   0  0  0  0  0  0
  -31.6127   40.5775   15.2026 H   0  0  0  0  0  0
  -31.9883   43.3906   16.2303 H   0  0  0  0  0  0
  -31.1594   42.0436   17.0820 H   0  0  0  0  0  0
  -29.5164   41.8676   15.3292 H   0  0  0  0  0  0
  -29.5975   43.5657   15.9093 H   0  0  0  0  0  0
  -26.7462   42.7125   12.6658 H   0  0  0  0  0  0
  -22.9634   43.9532   10.4075 H   0  0  0  0  0  0
  -23.0533   45.7469   10.4405 H   0  0  0  0  0  0
  -23.6248   44.8454    8.9957 H   0  0  0  0  0  0
  -25.5941   46.5553    9.8196 H   0  0  0  0  0  0
  1  2  1  0  0  0
  1 28  1  0  0  0
  1 29  1  0  0  0
  1 30  1  0  0  0
  2  3  1  0  0  0
  3  4  2  0  0  0
  3  8  1  0  0  0
  4  5  1  0  0  0
  4 31  1  0  0  0
  5  6  2  0  0  0
  6  7  1  0  0  0
  6 32  1  0  0  0
  7  8  2  0  0  0
  7  9  1  0  0  0
  8 33  1  0  0  0
  9 10  2  0  0  0
  9 27  1  0  0  0
 10 11  1  0  0  0
 10 34  1  0  0  0
 11 12  2  0  0  0
 12 13  1  0  0  0
 12 20  1  0  0  0
 13 14  1  0  0  0
 13 35  1  0  0  0
 14 15  1  0  0  0
 14 19  1  0  0  0
 14 36  1  0  0  0
 15 16  1  0  0  0
 15 37  1  0  0  0
 15 38  1  0  0  0
 16 17  1  0  0  0
 16 39  1  0  0  0
 16 40  1  0  0  0
 17 18  1  0  0  0
 17 41  1  0  0  0
 17 42  1  0  0  0
 18 19  1  0  0  0
 18 43  1  0  0  0
 18 44  1  0  0  0
 19 45  1  0  0  0
 19 46  1  0  0  0
 20 21  1  0  0  0
 20 27  2  0  0  0
 21 22  1  0  0  0
 21 47  1  0  0  0
 22 23  2  0  0  0
 22 24  1  0  0  0
 24 25  1  0  0  0
 24 26  2  0  0  0
 25 48  1  0  0  0
 25 49  1  0  0  0
 25 50  1  0  0  0
 26 27  1  0  0  0
 26 51  1  0  0  0
M  CHG  1  17   1
M  END
> <s_m_source_file>
../5a5r_ligand.sdf

> <i_m_source_file_index>
1

> <s_epik_input>
W0NIM11PYzFbY0hdbltjSF1jKFtjSF0xKS1jKGMoYzIzKVtjSF1jKFtDSDNdKWMoPU8pW25IXTMpW2NIXW5jMltOSF1bQ0hdNFtDSDJdW0NIMl1bTkgyK11bQ0gyXVtDSDJdNA==

> <s_epik_cmdline>
J2VwaWtfYXBwJywgJy1pbWFlJywgJ2xpZ2FuZF9wcm8ubWFlJywgJy1vbWFlJywgJ2xpZ2FuZF9wcmVwLm1hZScsICctbXMnLCAnMScsICctcGgnLCAnNycsICctcGh0JywgJzAuNScsICctbnQn

> <r_lp_tautomer_probability>
1

> <r_epik_Ionization_Penalty>
  0.0159

> <r_epik_Ionization_Penalty_Charging>
  0.0010

> <r_epik_Ionization_Penalty_Neutral>
  0.0149

> <r_epik_State_Penalty>
  0.0104

> <r_epik_Charging_Adjusted_Penalty>
0.0114181937332403

> <i_epik_Tot_Q>
1

> <i_epik_Tot_abs_Q>
1

$$$$
