5a5s_ligand
                    3D
 Schrodinger Suite 2020-3.
 51 54  0  0  1  0            999 V2000
  -16.6100   -3.8210    8.8630 C   0  0  0  0  0  0
  -16.2890   -5.2110    8.7690 O   0  0  0  0  0  0
  -15.9670   -5.7140    7.5350 C   0  0  0  0  0  0
  -15.6310   -4.9030    6.4640 C   0  0  0  0  0  0
  -15.3140   -5.3940    5.2620 N   0  0  0  0  0  0
  -15.3200   -6.7230    5.1080 C   0  0  0  0  0  0
  -15.6330   -7.6290    6.1160 C   0  0  0  0  0  0
  -15.9700   -7.0890    7.3550 C   0  0  0  0  0  0
  -15.6300   -9.0960    5.8440 C   0  0  0  0  0  0
  -16.3320   -9.5930    4.7560 C   0  0  0  0  0  0
  -16.3990  -10.8820    4.3880 N   0  0  0  0  0  0
  -15.7200  -11.8080    5.0890 C   0  0  0  0  0  0
  -15.8190  -13.0920    4.6800 N   0  0  0  0  0  0
  -16.3800  -13.5100    3.3960 C   0  0  0  0  0  0
  -15.4890  -13.0790    2.2450 C   0  0  0  0  0  0
  -16.0600  -13.5930    0.9400 C   0  0  0  0  0  0
  -16.1620  -15.0590    0.9800 N   0  3  0  0  0  0
  -17.0700  -15.5020    2.0470 C   0  0  0  0  0  0
  -16.5680  -15.0150    3.3860 C   0  0  0  0  0  0
  -14.9710  -11.3740    6.2120 C   0  0  0  0  0  0
  -14.2740  -12.3110    6.9570 N   0  0  0  0  0  0
  -13.5130  -12.0700    8.0470 C   0  0  0  0  0  0
  -12.9400  -12.9930    8.6250 O   0  0  0  0  0  0
  -13.4500  -10.6790    8.4490 C   0  0  0  0  0  0
  -12.6220  -10.3090    9.6480 C   0  0  0  0  0  0
  -14.0990   -9.7060    7.7750 C   0  0  0  0  0  0
  -14.8990  -10.0210    6.6130 C   0  0  0  0  0  0
  -16.8445   -3.5687    9.9077 H   0  0  0  0  0  0
  -17.4815   -3.6022    8.2284 H   0  0  0  0  0  0
  -15.7510   -3.2227    8.5252 H   0  0  0  0  0  0
  -15.6248   -3.8224    6.6068 H   0  0  0  0  0  0
  -15.0624   -7.1225    4.1271 H   0  0  0  0  0  0
  -16.2359   -7.7468    8.1825 H   0  0  0  0  0  0
  -16.8775   -8.8731    4.1458 H   0  0  0  0  0  0
  -15.4420  -13.8457    5.3870 H   0  0  0  0  0  0
  -17.3527  -13.0052    3.3013 H   0  0  0  0  0  0
  -15.4364  -11.9807    2.2134 H   0  0  0  0  0  0
  -14.4791  -13.4904    2.3891 H   0  0  0  0  0  0
  -17.0609  -13.1643    0.7836 H   0  0  0  0  0  0
  -15.4011  -13.2981    0.1100 H   0  0  0  0  0  0
  -16.5477  -15.4261    0.0175 H   0  0  0  0  0  0
  -15.1674  -15.4909    1.1652 H   0  0  0  0  0  0
  -18.0751  -15.0932    1.8663 H   0  0  0  0  0  0
  -17.1172  -16.6010    2.0555 H   0  0  0  0  0  0
  -15.6065  -15.5060    3.5965 H   0  0  0  0  0  0
  -17.3006  -15.2981    4.1561 H   0  0  0  0  0  0
  -14.3095  -13.3739    6.6760 H   0  0  0  0  0  0
  -12.1670  -11.2157   10.0733 H   0  0  0  0  0  0
  -13.2635   -9.8317   10.4034 H   0  0  0  0  0  0
  -11.8297   -9.6089    9.3445 H   0  0  0  0  0  0
  -14.0190   -8.6720    8.1105 H   0  0  0  0  0  0
  1  2  1  0  0  0
  1 28  1  0  0  0
  1 29  1  0  0  0
  1 30  1  0  0  0
  2  3  1  0  0  0
  3  4  2  0  0  0
  3  8  1  0  0  0
  4  5  1  0  0  0
  4 31  1  0  0  0
  5  6  2  0  0  0
  6  7  1  0  0  0
  6 32  1  0  0  0
  7  8  2  0  0  0
  7  9  1  0  0  0
  8 33  1  0  0  0
  9 10  2  0  0  0
  9 27  1  0  0  0
 10 11  1  0  0  0
 10 34  1  0  0  0
 11 12  2  0  0  0
 12 13  1  0  0  0
 12 20  1  0  0  0
 13 14  1  0  0  0
 13 35  1  0  0  0
 14 15  1  0  0  0
 14 19  1  0  0  0
 14 36  1  0  0  0
 15 16  1  0  0  0
 15 37  1  0  0  0
 15 38  1  0  0  0
 16 17  1  0  0  0
 16 39  1  0  0  0
 16 40  1  0  0  0
 17 18  1  0  0  0
 17 41  1  0  0  0
 17 42  1  0  0  0
 18 19  1  0  0  0
 18 43  1  0  0  0
 18 44  1  0  0  0
 19 45  1  0  0  0
 19 46  1  0  0  0
 20 21  1  0  0  0
 20 27  2  0  0  0
 21 22  1  0  0  0
 21 47  1  0  0  0
 22 23  2  0  0  0
 22 24  1  0  0  0
 24 25  1  0  0  0
 24 26  2  0  0  0
 25 48  1  0  0  0
 25 49  1  0  0  0
 25 50  1  0  0  0
 26 27  1  0  0  0
 26 51  1  0  0  0
M  CHG  1  17   1
M  END
> <s_m_source_file>
../5a5s_ligand.sdf

> <i_m_source_file_index>
1

> <s_epik_input>
W0NIM11PYzFbY0hdbltjSF1jKFtjSF0xKS1jKGMoYzIzKVtjSF1jKFtDSDNdKWMoPU8pW25IXTMpW2NIXW5jMltOSF1bQ0hdNFtDSDJdW0NIMl1bTkgyK11bQ0gyXVtDSDJdNA==

> <s_epik_cmdline>
J2VwaWtfYXBwJywgJy1pbWFlJywgJ2xpZ2FuZF9wcm8ubWFlJywgJy1vbWFlJywgJ2xpZ2FuZF9wcmVwLm1hZScsICctbXMnLCAnMScsICctcGgnLCAnNycsICctcGh0JywgJzAuNScsICctbnQn

> <r_lp_tautomer_probability>
1

> <r_epik_Ionization_Penalty>
  0.0159

> <r_epik_Ionization_Penalty_Charging>
  0.0010

> <r_epik_Ionization_Penalty_Neutral>
  0.0149

> <r_epik_State_Penalty>
  0.0104

> <r_epik_Charging_Adjusted_Penalty>
0.0114181937332403

> <i_epik_Tot_Q>
1

> <i_epik_Tot_abs_Q>
1

$$$$
