5a6n_ligand
                    3D
 Schrodinger Suite 2020-3.
 23 24  0  0  1  0            999 V2000
    6.3650  112.6950  100.7620 O   0  0  0  0  0  0
    7.7250  113.1570  100.7240 S   0  0  0  0  0  0
    8.6140  112.0360  100.9430 O   0  0  0  0  0  0
    8.0650  113.8230   99.3200 N   0  0  0  0  0  0
    7.9160  114.2500  101.8830 C   0  0  0  0  0  0
    6.8380  114.7450  102.6040 C   0  0  0  0  0  0
    7.0560  115.6930  103.6130 C   0  0  0  0  0  0
    8.3460  116.1530  103.8860 C   0  0  0  0  0  0
    9.4320  115.6620  103.1590 C   0  0  0  0  0  0
    9.1990  114.7110  102.1670 C   0  0  0  0  0  0
   10.8400  116.1100  103.4020 C   0  0  0  0  0  0
   12.0050  115.8060  102.8070 N   0  0  0  0  0  0
   13.0200  116.5190  103.5020 N   0  3  0  0  0  0
   12.4250  117.2990  104.4900 N   0  0  0  0  0  0
   11.0570  117.0070  104.3790 N   0  3  0  0  0  0
    7.9361  113.0788   98.5203 H   0  0  0  0  0  0
    9.1059  114.1788   99.3254 H   0  0  0  0  0  0
    5.8277  114.3984  102.3867 H   0  0  0  0  0  0
    6.2126  116.0740  104.1888 H   0  0  0  0  0  0
    8.5051  116.8961  104.6674 H   0  0  0  0  0  0
   10.0424  114.3182  101.5991 H   0  0  0  0  0  0
   13.9787  116.4052  103.2415 H   0  0  0  0  0  0
   10.3339  117.4973  105.0474 H   0  0  0  0  0  0
  1  2  2  0  0  0
  2  3  2  0  0  0
  2  4  1  0  0  0
  2  5  1  0  0  0
  4 16  1  0  0  0
  4 17  1  0  0  0
  5  6  2  0  0  0
  5 10  1  0  0  0
  6  7  1  0  0  0
  6 18  1  0  0  0
  7  8  2  0  0  0
  7 19  1  0  0  0
  8  9  1  0  0  0
  8 20  1  0  0  0
  9 10  2  0  0  0
  9 11  1  0  0  0
 10 21  1  0  0  0
 11 12  2  0  0  0
 11 15  1  0  0  0
 12 13  1  0  0  0
 13 14  1  0  0  0
 13 22  1  0  0  0
 14 15  2  0  0  0
 15 23  1  0  0  0
M  CHG  2  13   1  15   1
M  END
> <s_m_source_file>
../5a6n_ligand.sdf

> <i_m_source_file_index>
1

> <s_epik_input>
Tz1TKD1PKShbTkgyXSljMVtjSF1bY0hdW2NIXWMoW2NIXTEpLWMybltuSF1ubjI=

> <s_epik_cmdline>
J2VwaWtfYXBwJywgJy1pbWFlJywgJ2xpZ2FuZF9wcm8ubWFlJywgJy1vbWFlJywgJ2xpZ2FuZF9wcmVwLm1hZScsICctbXMnLCAnMScsICctcGgnLCAnNycsICctcGh0JywgJzAuNScsICctbnQn

> <r_epik_Ionization_Penalty>
 10.5121

> <r_epik_Ionization_Penalty_Charging>
 10.5111

> <r_epik_Ionization_Penalty_Neutral>
  0.0010

> <r_epik_State_Penalty>
  0.0112

> <r_epik_Charging_Adjusted_Penalty>
10.5223709335897

> <i_epik_Tot_Q>
2

> <i_epik_Tot_abs_Q>
2

> <s_epik_Chemistry_Notes>
This compound has an imine and may undergo hydrolysis.

$$$$
