5a81_ligand
                    3D
 Schrodinger Suite 2020-3.
 58 61  0  0  1  0            999 V2000
  -23.6050   44.8200    9.9600 C   0  0  0  0  0  0
  -24.9320   44.8210   10.6730 C   0  0  0  0  0  0
  -25.8350   45.7580   10.3440 C   0  0  0  0  0  0
  -27.1100   45.7880   11.0090 C   0  0  0  0  0  0
  -28.1080   46.7260   10.7420 C   0  0  0  0  0  0
  -29.2890   46.6400   11.4480 C   0  0  0  0  0  0
  -29.5420   45.7100   12.3860 N   0  0  0  0  0  0
  -28.6130   44.7760   12.6820 C   0  0  0  0  0  0
  -28.9240   43.8750   13.6390 N   0  0  0  0  0  0
  -30.2590   43.5430   14.1140 C   0  0  2  0  0  0
  -30.2040   43.0400   15.5540 C   0  0  0  0  0  0
  -31.5890   42.6520   16.0260 C   0  0  0  0  0  0
  -32.1350   41.5970   15.1670 N   0  3  0  0  0  0
  -32.2750   42.0770   13.7930 C   0  0  0  0  0  0
  -30.9250   42.4970   13.2320 C   0  0  1  0  0  0
  -31.1050   43.0550   11.9270 O   0  0  0  0  0  0
  -31.2000   42.1040   10.8630 C   0  0  0  0  0  0
  -31.2180   42.8150    9.5330 C   0  0  0  0  0  0
  -29.8960   43.5310    9.2870 C   0  0  0  0  0  0
  -29.8420   44.2050    7.9200 C   0  0  0  0  0  0
  -30.1030   43.2090    6.8080 C   0  0  0  0  0  0
  -31.4190   42.4830    7.0250 C   0  0  0  0  0  0
  -31.4650   41.8240    8.4020 C   0  0  0  0  0  0
  -27.3740   44.8200   11.9850 C   0  0  0  0  0  0
  -26.4000   43.8800   12.2760 N   0  0  0  0  0  0
  -25.1820   43.8100   11.6910 C   0  0  0  0  0  0
  -24.3860   42.9320   12.0200 O   0  0  0  0  0  0
  -23.5809   45.6416    9.2290 H   0  0  0  0  0  0
  -23.4698   43.8610    9.4384 H   0  0  0  0  0  0
  -22.7954   44.9566   10.6920 H   0  0  0  0  0  0
  -25.6026   46.4944    9.5747 H   0  0  0  0  0  0
  -27.9579   47.5057    9.9953 H   0  0  0  0  0  0
  -30.0671   47.3722   11.2323 H   0  0  0  0  0  0
  -28.0460   43.3708   14.0690 H   0  0  0  0  0  0
  -30.8204   44.4867   14.0496 H   0  0  0  0  0  0
  -29.5452   42.1609   15.6104 H   0  0  0  0  0  0
  -29.8114   43.8348   16.2053 H   0  0  0  0  0  0
  -31.5338   42.2832   17.0609 H   0  0  0  0  0  0
  -32.2500   43.5303   15.9845 H   0  0  0  0  0  0
  -31.4579   40.7302   15.1755 H   0  0  0  0  0  0
  -33.1236   41.2937   15.5421 H   0  0  0  0  0  0
  -32.6877   41.2742   13.1644 H   0  0  0  0  0  0
  -32.9534   42.9427   13.7743 H   0  0  0  0  0  0
  -30.2794   41.6123   13.1289 H   0  0  0  0  0  0
  -30.3342   41.4263   10.8985 H   0  0  0  0  0  0
  -32.1264   41.5214   10.9736 H   0  0  0  0  0  0
  -32.0344   43.5514    9.5681 H   0  0  0  0  0  0
  -29.7513   44.3071   10.0530 H   0  0  0  0  0  0
  -29.0708   42.8056    9.3396 H   0  0  0  0  0  0
  -30.6059   44.9950    7.8703 H   0  0  0  0  0  0
  -28.8464   44.6476    7.7685 H   0  0  0  0  0  0
  -30.1469   43.7382    5.8447 H   0  0  0  0  0  0
  -29.2912   42.4672    6.7821 H   0  0  0  0  0  0
  -32.2499   43.2001    6.9510 H   0  0  0  0  0  0
  -31.5383   41.7032    6.2584 H   0  0  0  0  0  0
  -30.6945   41.0393    8.4273 H   0  0  0  0  0  0
  -32.4580   41.3670    8.5252 H   0  0  0  0  0  0
  -26.5895   43.1094   13.0378 H   0  0  0  0  0  0
  1  2  1  0  0  0
  1 28  1  0  0  0
  1 29  1  0  0  0
  1 30  1  0  0  0
  2  3  2  0  0  0
  2 26  1  0  0  0
  3  4  1  0  0  0
  3 31  1  0  0  0
  4  5  2  0  0  0
  4 24  1  0  0  0
  5  6  1  0  0  0
  5 32  1  0  0  0
  6  7  2  0  0  0
  6 33  1  0  0  0
  7  8  1  0  0  0
  8  9  1  0  0  0
  8 24  2  0  0  0
  9 10  1  0  0  0
  9 34  1  0  0  0
 10 11  1  0  0  0
 10 15  1  0  0  0
 10 35  1  0  0  0
 11 12  1  0  0  0
 11 36  1  0  0  0
 11 37  1  0  0  0
 12 13  1  0  0  0
 12 38  1  0  0  0
 12 39  1  0  0  0
 13 14  1  0  0  0
 13 40  1  0  0  0
 13 41  1  0  0  0
 14 15  1  0  0  0
 14 42  1  0  0  0
 14 43  1  0  0  0
 15 16  1  0  0  0
 15 44  1  0  0  0
 16 17  1  0  0  0
 17 18  1  0  0  0
 17 45  1  0  0  0
 17 46  1  0  0  0
 18 19  1  0  0  0
 18 23  1  0  0  0
 18 47  1  0  0  0
 19 20  1  0  0  0
 19 48  1  0  0  0
 19 49  1  0  0  0
 20 21  1  0  0  0
 20 50  1  0  0  0
 20 51  1  0  0  0
 21 22  1  0  0  0
 21 52  1  0  0  0
 21 53  1  0  0  0
 22 23  1  0  0  0
 22 54  1  0  0  0
 22 55  1  0  0  0
 23 56  1  0  0  0
 23 57  1  0  0  0
 24 25  1  0  0  0
 25 26  1  0  0  0
 25 58  1  0  0  0
 26 27  2  0  0  0
M  CHG  1  13   1
M  END
> <s_m_source_file>
../5a81_ligand.sdf

> <i_m_source_file_index>
1

> <s_epik_input>
W0NIM11jKFtjSF0xKWMoPU8pW25IXWMoYzEyKWMobltjSF1bY0hdMilbTkhdW0NAQEhdM1tDSDJdW0NIMl1bTkgyK11bQ0gyXVtDQEhdM09bQ0gyXVtDSF00W0NIMl1bQ0gyXVtDSDJdW0NIMl1bQ0gyXTQ=

> <s_epik_cmdline>
J2VwaWtfYXBwJywgJy1pbWFlJywgJ2xpZ2FuZF9wcm8ubWFlJywgJy1vbWFlJywgJ2xpZ2FuZF9wcmVwLm1hZScsICctbXMnLCAnMScsICctcGgnLCAnNycsICctcGh0JywgJzAuNScsICctbnQn

> <r_epik_Ionization_Penalty>
  0.0799

> <r_epik_Ionization_Penalty_Charging>
  0.0007

> <r_epik_Ionization_Penalty_Neutral>
  0.0792

> <r_epik_State_Penalty>
  0.0701

> <r_epik_Charging_Adjusted_Penalty>
0.0707572570170042

> <i_epik_Tot_Q>
1

> <i_epik_Tot_abs_Q>
1

$$$$
