5a82_ligand
                    3D
 Schrodinger Suite 2020-3.
 58 61  0  0  1  0            999 V2000
  -24.3110   42.6350   12.1170 O   0  0  0  0  0  0
  -25.1030   43.4970   11.7470 C   0  0  0  0  0  0
  -24.8340   44.4940   10.7330 C   0  0  0  0  0  0
  -23.4900   44.5010   10.0570 C   0  0  0  0  0  0
  -26.3430   43.5730   12.2770 N   0  0  0  0  0  0
  -27.3270   44.4870   11.9440 C   0  0  0  0  0  0
  -27.0180   45.4480   10.9700 C   0  0  0  0  0  0
  -25.7210   45.4340   10.3440 C   0  0  0  0  0  0
  -28.5960   44.3970   12.5570 C   0  0  0  0  0  0
  -29.5290   45.3130   12.2190 N   0  0  0  0  0  0
  -29.2410   46.2530   11.3020 C   0  0  0  0  0  0
  -28.0270   46.3630   10.6490 C   0  0  0  0  0  0
  -28.9570   43.4300   13.4180 N   0  0  0  0  0  0
  -30.2540   43.2440   14.0330 C   0  0  1  0  0  0
  -30.9430   42.1840   13.1870 C   0  0  1  0  0  0
  -32.3260   41.8310   13.8040 C   0  0  0  0  0  0
  -32.2040   41.3500   15.1780 N   0  3  0  0  0  0
  -31.4130   42.2230   16.0560 C   0  0  0  0  0  0
  -30.1230   42.7590   15.4730 C   0  0  0  0  0  0
  -31.1380   42.7320   11.8770 O   0  0  0  0  0  0
  -31.3210   41.7600   10.8430 C   0  0  0  0  0  0
  -31.2230   42.5050    9.5350 C   0  0  0  0  0  0
  -31.5550   41.5690    8.3790 C   0  0  0  0  0  0
  -31.5400   42.2780    7.0220 C   0  0  0  0  0  0
  -29.9100   42.8510    6.6670 S   0  0  0  0  0  0
  -29.9390   43.6640    5.4820 O   0  0  0  0  0  0
  -28.9990   41.7390    6.7080 O   0  0  0  0  0  0
  -29.6280   43.8820    8.0710 C   0  0  0  0  0  0
  -29.8230   43.0700    9.3330 C   0  0  0  0  0  0
  -22.8699   43.6894   10.4655 H   0  0  0  0  0  0
  -22.9946   45.4667   10.2360 H   0  0  0  0  0  0
  -23.6229   44.3520    8.9753 H   0  0  0  0  0  0
  -26.6531   42.8603   13.0554 H   0  0  0  0  0  0
  -25.4625   46.1633    9.5763 H   0  0  0  0  0  0
  -30.0172   46.9778   11.0565 H   0  0  0  0  0  0
  -27.8605   47.1414    9.9044 H   0  0  0  0  0  0
  -28.1365   42.7328   13.6431 H   0  0  0  0  0  0
  -30.7794   44.2103   14.0479 H   0  0  0  0  0  0
  -30.3103   41.2908   13.0781 H   0  0  0  0  0  0
  -32.9648   42.7265   13.8085 H   0  0  0  0  0  0
  -32.8044   41.0424   13.2047 H   0  0  0  0  0  0
  -33.2047   41.2640   15.6266 H   0  0  0  0  0  0
  -31.7156   40.3644   15.1795 H   0  0  0  0  0  0
  -32.0113   43.1034   16.3332 H   0  0  0  0  0  0
  -31.1307   41.6707   16.9645 H   0  0  0  0  0  0
  -29.3811   41.9483   15.5208 H   0  0  0  0  0  0
  -29.7969   43.5925   16.1124 H   0  0  0  0  0  0
  -30.5368   40.9923   10.9185 H   0  0  0  0  0  0
  -32.3083   41.2878   10.9541 H   0  0  0  0  0  0
  -31.9442   43.3348    9.5722 H   0  0  0  0  0  0
  -30.8158   40.7552    8.3422 H   0  0  0  0  0  0
  -32.5594   41.1456    8.5269 H   0  0  0  0  0  0
  -31.8579   41.5753    6.2377 H   0  0  0  0  0  0
  -32.2295   43.1347    7.0482 H   0  0  0  0  0  0
  -28.6001   44.2723    8.0387 H   0  0  0  0  0  0
  -30.3393   44.7210    8.0587 H   0  0  0  0  0  0
  -29.5709   43.7340   10.1729 H   0  0  0  0  0  0
  -29.0974   42.2445    9.2877 H   0  0  0  0  0  0
  1  2  2  0  0  0
  2  3  1  0  0  0
  2  5  1  0  0  0
  3  4  1  0  0  0
  3  8  2  0  0  0
  4 30  1  0  0  0
  4 31  1  0  0  0
  4 32  1  0  0  0
  5  6  1  0  0  0
  5 33  1  0  0  0
  6  7  2  0  0  0
  6  9  1  0  0  0
  7  8  1  0  0  0
  7 12  1  0  0  0
  8 34  1  0  0  0
  9 10  2  0  0  0
  9 13  1  0  0  0
 10 11  1  0  0  0
 11 12  2  0  0  0
 11 35  1  0  0  0
 12 36  1  0  0  0
 13 14  1  0  0  0
 13 37  1  0  0  0
 14 15  1  0  0  0
 14 19  1  0  0  0
 14 38  1  0  0  0
 15 16  1  0  0  0
 15 20  1  0  0  0
 15 39  1  0  0  0
 16 17  1  0  0  0
 16 40  1  0  0  0
 16 41  1  0  0  0
 17 18  1  0  0  0
 17 42  1  0  0  0
 17 43  1  0  0  0
 18 19  1  0  0  0
 18 44  1  0  0  0
 18 45  1  0  0  0
 19 46  1  0  0  0
 19 47  1  0  0  0
 20 21  1  0  0  0
 21 22  1  0  0  0
 21 48  1  0  0  0
 21 49  1  0  0  0
 22 23  1  0  0  0
 22 29  1  0  0  0
 22 50  1  0  0  0
 23 24  1  0  0  0
 23 51  1  0  0  0
 23 52  1  0  0  0
 24 25  1  0  0  0
 24 53  1  0  0  0
 24 54  1  0  0  0
 25 26  2  0  0  0
 25 27  2  0  0  0
 25 28  1  0  0  0
 28 29  1  0  0  0
 28 55  1  0  0  0
 28 56  1  0  0  0
 29 57  1  0  0  0
 29 58  1  0  0  0
M  CHG  1  17   1
M  END
> <s_m_source_file>
../5a82_ligand.sdf

> <i_m_source_file_index>
1

> <s_epik_input>
Tz1jKFtuSF0xKWMoW0NIM10pW2NIXWMoYzEyKVtjSF1bY0hdbmMyW05IXVtDQEhdM1tDQEBIXShbQ0gyXVtOSDIrXVtDSDJdW0NIMl0zKU9bQ0gyXVtDSF0oW0NIMl1bQ0gyXTQpW0NIMl1bQ0gyXVM0KD1PKT1P

> <s_epik_cmdline>
J2VwaWtfYXBwJywgJy1pbWFlJywgJ2xpZ2FuZF9wcm8ubWFlJywgJy1vbWFlJywgJ2xpZ2FuZF9wcmVwLm1hZScsICctbXMnLCAnMScsICctcGgnLCAnNycsICctcGh0JywgJzAuNScsICctbnQn

> <r_epik_Ionization_Penalty>
  0.0814

> <r_epik_Ionization_Penalty_Charging>
  0.0007

> <r_epik_Ionization_Penalty_Neutral>
  0.0807

> <r_epik_State_Penalty>
  0.0715

> <r_epik_Charging_Adjusted_Penalty>
0.0721487220427118

> <i_epik_Tot_Q>
1

> <i_epik_Tot_abs_Q>
1

$$$$
