5a83_ligand
                    3D
 Schrodinger Suite 2020-3.
 71 75  0  0  1  0            999 V2000
  -24.4860   42.8230   12.0140 O   0  0  0  0  0  0
  -25.2760   43.6940   11.6550 C   0  0  0  0  0  0
  -26.5140   43.7500   12.2000 N   0  0  0  0  0  0
  -24.9790   44.7190   10.6780 C   0  0  0  0  0  0
  -23.6600   44.6730    9.9500 C   0  0  0  0  0  0
  -25.9080   45.6850   10.3930 C   0  0  0  0  0  0
  -27.2100   45.7330   11.0200 C   0  0  0  0  0  0
  -28.1660   46.7220   10.7590 C   0  0  0  0  0  0
  -27.8790   47.9210    9.9210 C   0  0  0  0  0  0
  -26.7880   48.7490   10.1700 C   0  0  0  0  0  0
  -26.4960   49.8380    9.4480 N   0  0  0  0  0  0
  -27.3080   50.1390    8.4270 C   0  0  0  0  0  0
  -28.6990   48.2770    8.8540 C   0  0  0  0  0  0
  -28.4270   49.3970    8.0840 C   0  0  0  0  0  0
  -29.3130   49.7950    6.9280 C   0  0  0  0  0  0
  -27.4930   44.6990   11.9340 C   0  0  0  0  0  0
  -28.7470   44.6190   12.5630 C   0  0  0  0  0  0
  -29.6910   45.6010   12.2510 C   0  0  0  0  0  0
  -29.4110   46.6310   11.3730 C   0  0  0  0  0  0
  -29.0120   43.5820   13.4550 N   0  0  0  0  0  0
  -30.3010   43.2530   14.0490 C   0  0  1  0  0  0
  -31.0080   42.1750   13.2370 C   0  0  1  0  0  0
  -32.3510   41.8050   13.8690 C   0  0  0  0  0  0
  -32.1720   41.4120   15.2640 N   0  3  0  0  0  0
  -31.4480   42.3730   16.1040 C   0  0  0  0  0  0
  -30.1250   42.7800   15.4910 C   0  0  0  0  0  0
  -31.2460   42.7290   11.9360 O   0  0  0  0  0  0
  -31.4490   41.7650   10.8980 C   0  0  0  0  0  0
  -31.3450   42.5060    9.5880 C   0  0  0  0  0  0
  -31.7130   41.5810    8.4310 C   0  0  0  0  0  0
  -31.6970   42.2960    7.0770 C   0  0  0  0  0  0
  -30.0690   42.8660    6.7000 S   0  0  0  0  0  0
  -30.1180   43.7020    5.5330 O   0  0  0  0  0  0
  -29.1700   41.7430    6.6940 O   0  0  0  0  0  0
  -29.7350   43.8670    8.1140 C   0  0  0  0  0  0
  -29.9340   43.0400    9.3720 C   0  0  0  0  0  0
  -26.8271   42.9918   12.9329 H   0  0  0  0  0  0
  -23.0636   43.8282   10.3249 H   0  0  0  0  0  0
  -23.1137   45.6122   10.1214 H   0  0  0  0  0  0
  -23.8402   44.5450    8.8724 H   0  0  0  0  0  0
  -25.6542   46.4516    9.6609 H   0  0  0  0  0  0
  -26.1321   48.4955   11.0028 H   0  0  0  0  0  0
  -27.0750   51.0205    7.8297 H   0  0  0  0  0  0
  -29.5698   47.6646    8.6200 H   0  0  0  0  0  0
  -28.9158   50.7071    6.4587 H   0  0  0  0  0  0
  -30.3320   49.9858    7.2958 H   0  0  0  0  0  0
  -29.3367   48.9820    6.1874 H   0  0  0  0  0  0
  -30.6768   45.5533   12.7135 H   0  0  0  0  0  0
  -30.1737   47.3799   11.1594 H   0  0  0  0  0  0
  -28.1235   42.9823   13.7019 H   0  0  0  0  0  0
  -30.8807   44.1875   14.0215 H   0  0  0  0  0  0
  -30.3844   41.2746   13.1350 H   0  0  0  0  0  0
  -33.0271   42.6716   13.8270 H   0  0  0  0  0  0
  -32.7971   40.9648   13.3167 H   0  0  0  0  0  0
  -33.1563   41.2696   15.7340 H   0  0  0  0  0  0
  -31.6042   40.4710   15.3099 H   0  0  0  0  0  0
  -32.0585   43.2787   16.2346 H   0  0  0  0  0  0
  -31.2463   41.9219   17.0868 H   0  0  0  0  0  0
  -29.4488   41.9126   15.5124 H   0  0  0  0  0  0
  -29.6965   43.5940   16.0942 H   0  0  0  0  0  0
  -30.6775   40.9840   10.9670 H   0  0  0  0  0  0
  -32.4436   41.3089   11.0106 H   0  0  0  0  0  0
  -32.0466   43.3519    9.6351 H   0  0  0  0  0  0
  -30.9935   40.7503    8.3826 H   0  0  0  0  0  0
  -32.7252   41.1806    8.5893 H   0  0  0  0  0  0
  -32.0234   41.5994    6.2907 H   0  0  0  0  0  0
  -32.3795   43.1581    7.1095 H   0  0  0  0  0  0
  -28.6968   44.2279    8.0707 H   0  0  0  0  0  0
  -30.4217   44.7262    8.1255 H   0  0  0  0  0  0
  -29.6534   43.6865   10.2166 H   0  0  0  0  0  0
  -29.2295   42.1979    9.3050 H   0  0  0  0  0  0
  1  2  2  0  0  0
  2  3  1  0  0  0
  2  4  1  0  0  0
  3 16  1  0  0  0
  3 37  1  0  0  0
  4  5  1  0  0  0
  4  6  2  0  0  0
  5 38  1  0  0  0
  5 39  1  0  0  0
  5 40  1  0  0  0
  6  7  1  0  0  0
  6 41  1  0  0  0
  7  8  2  0  0  0
  7 16  1  0  0  0
  8  9  1  0  0  0
  8 19  1  0  0  0
  9 10  2  0  0  0
  9 13  1  0  0  0
 10 11  1  0  0  0
 10 42  1  0  0  0
 11 12  2  0  0  0
 12 14  1  0  0  0
 12 43  1  0  0  0
 13 14  2  0  0  0
 13 44  1  0  0  0
 14 15  1  0  0  0
 15 45  1  0  0  0
 15 46  1  0  0  0
 15 47  1  0  0  0
 16 17  2  0  0  0
 17 18  1  0  0  0
 17 20  1  0  0  0
 18 19  2  0  0  0
 18 48  1  0  0  0
 19 49  1  0  0  0
 20 21  1  0  0  0
 20 50  1  0  0  0
 21 22  1  0  0  0
 21 26  1  0  0  0
 21 51  1  0  0  0
 22 23  1  0  0  0
 22 27  1  0  0  0
 22 52  1  0  0  0
 23 24  1  0  0  0
 23 53  1  0  0  0
 23 54  1  0  0  0
 24 25  1  0  0  0
 24 55  1  0  0  0
 24 56  1  0  0  0
 25 26  1  0  0  0
 25 57  1  0  0  0
 25 58  1  0  0  0
 26 59  1  0  0  0
 26 60  1  0  0  0
 27 28  1  0  0  0
 28 29  1  0  0  0
 28 61  1  0  0  0
 28 62  1  0  0  0
 29 30  1  0  0  0
 29 36  1  0  0  0
 29 63  1  0  0  0
 30 31  1  0  0  0
 30 64  1  0  0  0
 30 65  1  0  0  0
 31 32  1  0  0  0
 31 66  1  0  0  0
 31 67  1  0  0  0
 32 33  2  0  0  0
 32 34  2  0  0  0
 32 35  1  0  0  0
 35 36  1  0  0  0
 35 68  1  0  0  0
 35 69  1  0  0  0
 36 70  1  0  0  0
 36 71  1  0  0  0
M  CHG  1  24   1
M  END
> <s_m_source_file>
../5a83_ligand.sdf

> <i_m_source_file_index>
1

> <s_epik_input>
W2NIXTFjKFtDSDNdKVtjSF1uW2NIXWMxLWMyW2NIXVtjSF1jKGMoYzIzKVtuSF1jKD1PKWMoW0NIM10pW2NIXTMpW05IXVtDQEhdNFtDQEBIXShbQ0gyXVtOSDIrXVtDSDJdW0NIMl00KU9bQ0gyXVtDSF0oW0NIMl1bQ0gyXTUpW0NIMl1bQ0gyXVM1KD1PKT1P

> <s_epik_cmdline>
J2VwaWtfYXBwJywgJy1pbWFlJywgJ2xpZ2FuZF9wcm8ubWFlJywgJy1vbWFlJywgJ2xpZ2FuZF9wcmVwLm1hZScsICctbXMnLCAnMScsICctcGgnLCAnNycsICctcGh0JywgJzAuNScsICctbnQn

> <r_lp_tautomer_probability>
1

> <r_epik_Ionization_Penalty>
  0.0049

> <r_epik_Ionization_Penalty_Charging>
  0.0002

> <r_epik_Ionization_Penalty_Neutral>
  0.0047

> <r_epik_State_Penalty>
 -0.0000

> <r_epik_Charging_Adjusted_Penalty>
0.000158258508899593

> <i_epik_Tot_Q>
1

> <i_epik_Tot_abs_Q>
1

$$$$
