5a85_ligand
                    3D
 Schrodinger Suite 2020-3.
 58 61  0  0  1  0            999 V2000
   10.8890    5.3610   12.6890 C   0  0  0  0  0  0
   11.8790    5.3740   11.5510 C   0  0  0  0  0  0
   12.6850    4.3130   11.3850 C   0  0  0  0  0  0
   13.6390    4.3060   10.3070 C   0  0  0  0  0  0
   14.5180    3.2570   10.0510 C   0  0  0  0  0  0
   15.3860    3.3780    8.9880 C   0  0  0  0  0  0
   15.4360    4.4440    8.1710 N   0  0  0  0  0  0
   14.5990    5.4850    8.3660 C   0  0  0  0  0  0
   14.7050    6.5310    7.5180 N   0  0  0  0  0  0
   15.2290    6.4770    6.1590 C   0  0  2  0  0  0
   15.5010    7.8850    5.6280 C   0  0  0  0  0  0
   16.0750    7.7900    4.2330 C   0  0  0  0  0  0
   15.1040    7.1520    3.3400 N   0  3  0  0  0  0
   14.7820    5.7920    3.7760 C   0  0  0  0  0  0
   14.2960    5.7110    5.2190 C   0  0  1  0  0  0
   14.2180    4.3550    5.6920 O   0  0  0  0  0  0
   13.6740    3.3760    4.8010 C   0  0  0  0  0  0
   12.5900    2.5710    5.4730 C   0  0  0  0  0  0
   13.1350    1.7740    6.6500 C   0  0  0  0  0  0
   12.0810    0.8780    7.2900 C   0  0  0  0  0  0
   11.4670   -0.0610    6.2710 C   0  0  0  0  0  0
   10.8950    0.7160    5.1030 C   0  0  0  0  0  0
   11.9480    1.6180    4.4710 C   0  0  0  0  0  0
   13.6930    5.4170    9.4570 C   0  0  0  0  0  0
   12.8390    6.4790    9.6810 N   0  0  0  0  0  0
   11.9270    6.5390   10.6770 C   0  0  0  0  0  0
   11.2070    7.5280   10.7890 O   0  0  0  0  0  0
   10.9828    4.4170   13.2458 H   0  0  0  0  0  0
    9.8685    5.4504   12.2882 H   0  0  0  0  0  0
   11.0937    6.2061   13.3627 H   0  0  0  0  0  0
   12.6173    3.4619   12.0626 H   0  0  0  0  0  0
   14.5194    2.3635   10.6753 H   0  0  0  0  0  0
   16.0765    2.5565    8.7973 H   0  0  0  0  0  0
   14.3525    7.4863    7.9340 H   0  0  0  0  0  0
   16.1744    5.9217    6.2484 H   0  0  0  0  0  0
   14.5605    8.4549    5.6014 H   0  0  0  0  0  0
   16.2192    8.3934    6.2881 H   0  0  0  0  0  0
   16.3032    8.7997    3.8609 H   0  0  0  0  0  0
   16.9971    7.1906    4.2559 H   0  0  0  0  0  0
   14.1752    7.7412    3.3273 H   0  0  0  0  0  0
   15.5197    7.1009    2.3228 H   0  0  0  0  0  0
   13.9853    5.3815    3.1382 H   0  0  0  0  0  0
   15.6783    5.1594    3.6959 H   0  0  0  0  0  0
   13.2678    6.1013    5.2420 H   0  0  0  0  0  0
   13.2444    3.8787    3.9219 H   0  0  0  0  0  0
   14.4715    2.6906    4.4781 H   0  0  0  0  0  0
   11.8433    3.2859    5.8490 H   0  0  0  0  0  0
   13.9605    1.1326    6.3077 H   0  0  0  0  0  0
   13.5038    2.4656    7.4218 H   0  0  0  0  0  0
   12.5450    0.2769    8.0858 H   0  0  0  0  0  0
   11.2821    1.5005    7.7192 H   0  0  0  0  0  0
   12.2381   -0.7501    5.8960 H   0  0  0  0  0  0
   10.6587   -0.6378    6.7442 H   0  0  0  0  0  0
   10.5307    0.0138    4.3387 H   0  0  0  0  0  0
   10.0611    1.3425    5.4525 H   0  0  0  0  0  0
   11.4585    2.1982    3.6749 H   0  0  0  0  0  0
   12.7223    0.9724    4.0310 H   0  0  0  0  0  0
   12.8721    7.3597    9.0228 H   0  0  0  0  0  0
  1  2  1  0  0  0
  1 28  1  0  0  0
  1 29  1  0  0  0
  1 30  1  0  0  0
  2  3  2  0  0  0
  2 26  1  0  0  0
  3  4  1  0  0  0
  3 31  1  0  0  0
  4  5  2  0  0  0
  4 24  1  0  0  0
  5  6  1  0  0  0
  5 32  1  0  0  0
  6  7  2  0  0  0
  6 33  1  0  0  0
  7  8  1  0  0  0
  8  9  1  0  0  0
  8 24  2  0  0  0
  9 10  1  0  0  0
  9 34  1  0  0  0
 10 11  1  0  0  0
 10 15  1  0  0  0
 10 35  1  0  0  0
 11 12  1  0  0  0
 11 36  1  0  0  0
 11 37  1  0  0  0
 12 13  1  0  0  0
 12 38  1  0  0  0
 12 39  1  0  0  0
 13 14  1  0  0  0
 13 40  1  0  0  0
 13 41  1  0  0  0
 14 15  1  0  0  0
 14 42  1  0  0  0
 14 43  1  0  0  0
 15 16  1  0  0  0
 15 44  1  0  0  0
 16 17  1  0  0  0
 17 18  1  0  0  0
 17 45  1  0  0  0
 17 46  1  0  0  0
 18 19  1  0  0  0
 18 23  1  0  0  0
 18 47  1  0  0  0
 19 20  1  0  0  0
 19 48  1  0  0  0
 19 49  1  0  0  0
 20 21  1  0  0  0
 20 50  1  0  0  0
 20 51  1  0  0  0
 21 22  1  0  0  0
 21 52  1  0  0  0
 21 53  1  0  0  0
 22 23  1  0  0  0
 22 54  1  0  0  0
 22 55  1  0  0  0
 23 56  1  0  0  0
 23 57  1  0  0  0
 24 25  1  0  0  0
 25 26  1  0  0  0
 25 58  1  0  0  0
 26 27  2  0  0  0
M  CHG  1  13   1
M  END
> <s_m_source_file>
../5a85_ligand.sdf

> <i_m_source_file_index>
1

> <s_epik_input>
W0NIM11jKFtjSF0xKWMoPU8pW25IXWMoYzEyKWMobltjSF1bY0hdMilbTkhdW0NAQEhdM1tDSDJdW0NIMl1bTkgyK11bQ0gyXVtDQEhdM09bQ0gyXVtDSF00W0NIMl1bQ0gyXVtDSDJdW0NIMl1bQ0gyXTQ=

> <s_epik_cmdline>
J2VwaWtfYXBwJywgJy1pbWFlJywgJ2xpZ2FuZF9wcm8ubWFlJywgJy1vbWFlJywgJ2xpZ2FuZF9wcmVwLm1hZScsICctbXMnLCAnMScsICctcGgnLCAnNycsICctcGh0JywgJzAuNScsICctbnQn

> <r_epik_Ionization_Penalty>
  0.0799

> <r_epik_Ionization_Penalty_Charging>
  0.0007

> <r_epik_Ionization_Penalty_Neutral>
  0.0792

> <r_epik_State_Penalty>
  0.0701

> <r_epik_Charging_Adjusted_Penalty>
0.0707572570170027

> <i_epik_Tot_Q>
1

> <i_epik_Tot_abs_Q>
1

$$$$
