5aad_ligand
                    3D
 Schrodinger Suite 2020-3.
 46 50  0  0  1  0            999 V2000
   -6.3730   28.7330   75.9670 Cl  0  0  0  0  0  0
   -5.4450   30.0080   76.5590 C   0  0  0  0  0  0
   -5.2520   30.1460   77.9160 C   0  0  0  0  0  0
   -5.9330   29.3290   79.0010 C   0  0  0  0  0  0
   -7.1450   28.6440   78.7600 C   0  0  0  0  0  0
   -7.5670   28.0750   79.9310 N   0  0  0  0  0  0
   -8.8100   27.2490   79.9690 C   0  0  0  0  0  0
   -8.5280   25.7920   80.3280 C   0  0  0  0  0  0
   -7.4220   25.5620   81.1770 C   0  0  0  0  0  0
   -7.1270   24.2680   81.5760 C   0  0  0  0  0  0
   -7.9330   23.1830   81.1310 C   0  0  0  0  0  0
   -9.0470   23.4310   80.2880 C   0  0  0  0  0  0
   -9.3470   24.7500   79.8800 C   0  0  0  0  0  0
   -6.6840   28.4460   80.9750 N   0  0  0  0  0  0
   -5.6690   29.2610   80.3850 C   0  0  0  0  0  0
   -4.4710   31.2700   78.3880 C   0  0  0  0  0  0
   -4.1170   31.6920   79.7280 N   0  0  0  0  0  0
   -3.3590   32.7710   79.5510 C   0  0  3  0  0  0
   -2.7330   33.5780   80.6250 C   0  0  0  0  0  0
   -1.8730   34.6510   80.2680 C   0  0  0  0  0  0
   -1.4780   35.1660   81.3870 N   0  0  0  0  0  0
   -0.5820   36.2850   81.4510 C   0  0  0  0  0  0
   -2.0590   34.4490   82.5280 N   0  0  0  0  0  0
   -2.8330   33.4740   82.0210 C   0  0  0  0  0  0
   -3.6290   32.5040   82.7800 C   0  0  0  0  0  0
   -3.1800   33.0800   78.1350 N   0  0  0  0  0  0
   -3.8760   32.1450   77.4090 C   0  0  0  0  0  0
   -4.0350   31.9750   76.0910 N   0  0  0  0  0  0
   -4.8160   30.9290   75.6110 C   0  0  0  0  0  0
   -7.6586   28.5794   77.8008 H   0  0  0  0  0  0
   -9.4990   27.6579   80.7227 H   0  0  0  0  0  0
   -9.2936   27.2685   78.9812 H   0  0  0  0  0  0
   -6.8061   26.3953   81.5152 H   0  0  0  0  0  0
   -6.2765   24.0811   82.2316 H   0  0  0  0  0  0
   -7.6952   22.1642   81.4369 H   0  0  0  0  0  0
   -9.6723   22.6027   79.9547 H   0  0  0  0  0  0
  -10.1985   24.9515   79.2300 H   0  0  0  0  0  0
   -4.8426   29.7418   80.9084 H   0  0  0  0  0  0
   -1.6027   34.9728   79.2623 H   0  0  0  0  0  0
   -0.3205   36.6041   80.4313 H   0  0  0  0  0  0
    0.3316   35.9928   81.9895 H   0  0  0  0  0  0
   -1.0703   37.1159   81.9813 H   0  0  0  0  0  0
   -4.1535   31.8343   82.0825 H   0  0  0  0  0  0
   -4.3650   33.0380   83.3990 H   0  0  0  0  0  0
   -2.9656   31.9121   83.4278 H   0  0  0  0  0  0
   -4.9564   30.7996   74.5277 H   0  0  0  0  0  0
  1  2  1  0  0  0
  2  3  2  0  0  0
  2 29  1  0  0  0
  3  4  1  0  0  0
  3 16  1  0  0  0
  4  5  2  0  0  0
  4 15  1  0  0  0
  5  6  1  0  0  0
  5 30  1  0  0  0
  6  7  1  0  0  0
  6 14  1  0  0  0
  7  8  1  0  0  0
  7 31  1  0  0  0
  7 32  1  0  0  0
  8  9  2  0  0  0
  8 13  1  0  0  0
  9 10  1  0  0  0
  9 33  1  0  0  0
 10 11  2  0  0  0
 10 34  1  0  0  0
 11 12  1  0  0  0
 11 35  1  0  0  0
 12 13  2  0  0  0
 12 36  1  0  0  0
 13 37  1  0  0  0
 14 15  2  0  0  0
 15 38  1  0  0  0
 16 17  2  0  0  0
 16 27  1  0  0  0
 17 18  1  0  0  0
 18 19  1  0  0  0
 18 26  1  0  0  0
 19 20  2  0  0  0
 19 24  1  0  0  0
 20 21  1  0  0  0
 20 39  1  0  0  0
 21 22  1  0  0  0
 21 23  1  0  0  0
 22 40  1  0  0  0
 22 41  1  0  0  0
 22 42  1  0  0  0
 23 24  2  0  0  0
 24 25  1  0  0  0
 25 43  1  0  0  0
 25 44  1  0  0  0
 25 45  1  0  0  0
 26 27  2  0  0  0
 27 28  1  0  0  0
 28 29  2  0  0  0
 29 46  1  0  0  0
M  END
> <s_m_source_file>
../5aad_ligand.sdf

> <i_m_source_file_index>
1

> <s_epik_input>
W0NIM11jMW5uKFtDSDNdKVtjSF1jMVtDSF0oTjIpTj1jKGM9MjMpbltjSF1jKENsKWMzLWM0W2NIXW4obltjSF00KVtDSDJdYzVbY0hdW2NIXVtjSF1bY0hdW2NIXTU=

> <s_epik_cmdline>
J2VwaWtfYXBwJywgJy1pbWFlJywgJ2xpZ2FuZF9wcm8ubWFlJywgJy1vbWFlJywgJ2xpZ2FuZF9wcmVwLm1hZScsICctbXMnLCAnMScsICctcGgnLCAnNycsICctcGh0JywgJzAuNScsICctbnQn

> <r_lp_tautomer_probability>
1

> <r_epik_Ionization_Penalty>
  0.0000

> <r_epik_Ionization_Penalty_Charging>
  0.0000

> <r_epik_Ionization_Penalty_Neutral>
  0.0000

> <r_epik_State_Penalty>
 -0.0000

> <r_epik_Charging_Adjusted_Penalty>
0

> <i_epik_Tot_Q>
0

> <i_epik_Tot_abs_Q>
0

> <s_epik_Chemistry_Notes>
This compound has an imine and may undergo hydrolysis.

$$$$
