5aae_ligand
                    3D
 Schrodinger Suite 2020-3.
 46 50  0  0  1  0            999 V2000
    7.9840  -22.0850   -5.1100 C   0  0  0  0  0  0
    7.6280  -23.5220   -4.7400 C   0  0  0  0  0  0
    8.4210  -24.6520   -4.9400 C   0  0  0  0  0  0
    7.7090  -25.7510   -4.4560 C   0  0  0  0  0  0
    8.1830  -27.2050   -4.4670 C   0  0  0  0  0  0
    7.0920  -28.0570   -4.8800 N   0  0  0  0  0  0
    6.9650  -28.6420   -6.0940 C   0  0  0  0  0  0
    5.7720  -29.3820   -6.1130 C   0  0  0  0  0  0
    5.2190  -30.1600   -7.1720 C   0  0  0  0  0  0
    5.4620  -29.8900   -8.5380 C   0  0  0  0  0  0
    6.4900  -28.5720   -9.0730 Cl  0  0  0  0  0  0
    4.8680  -30.7040   -9.5290 C   0  0  0  0  0  0
    4.0600  -31.7440   -9.1960 N   0  0  0  0  0  0
    3.7960  -32.0320   -7.8600 C   0  0  0  0  0  0
    3.0190  -33.0190   -7.2480 N   0  0  0  0  0  0
    3.0940  -32.8650   -5.9070 C   0  0  0  0  0  0
    2.4310  -33.6900   -4.9730 C   0  0  0  0  0  0
    1.6360  -34.7930   -5.3120 C   0  0  0  0  0  0
    1.1700  -35.3360   -4.1670 N   0  0  0  0  0  0
    0.3110  -36.4930   -4.0920 C   0  0  0  0  0  0
    1.6340  -34.6220   -3.1150 N   0  0  0  0  0  0
    2.4110  -33.6060   -3.5750 C   0  0  0  0  0  0
    3.1140  -32.5840   -2.6990 C   0  0  0  0  0  0
    3.8990  -31.8060   -5.6400 N   0  3  0  0  0  0
    4.3450  -31.2760   -6.8530 C   0  0  0  0  0  0
    5.2140  -29.2090   -4.8480 C   0  0  0  0  0  0
    6.0280  -28.4010   -4.1210 N   0  0  0  0  0  0
    6.5330  -25.3060   -3.9790 N   0  0  0  0  0  0
    6.4750  -23.9310   -4.1500 O   0  0  0  0  0  0
    8.9815  -22.0620   -5.5730 H   0  0  0  0  0  0
    7.9863  -21.4627   -4.2030 H   0  0  0  0  0  0
    7.2407  -21.6945   -5.8207 H   0  0  0  0  0  0
    9.4132  -24.6730   -5.3908 H   0  0  0  0  0  0
    9.0217  -27.3119   -5.1707 H   0  0  0  0  0  0
    8.5128  -27.4908   -3.4573 H   0  0  0  0  0  0
    7.6713  -28.5533   -6.9194 H   0  0  0  0  0  0
    5.0620  -30.4932  -10.5807 H   0  0  0  0  0  0
    1.4302  -35.1495   -6.3213 H   0  0  0  0  0  0
    0.1010  -36.8601   -5.1074 H   0  0  0  0  0  0
   -0.6330  -36.2174   -3.5991 H   0  0  0  0  0  0
    0.8103  -37.2834   -3.5123 H   0  0  0  0  0  0
    3.6716  -31.8791   -3.3332 H   0  0  0  0  0  0
    3.8116  -33.0991   -2.0223 H   0  0  0  0  0  0
    2.3680  -32.0335   -2.1070 H   0  0  0  0  0  0
    4.2795  -29.6491   -4.4999 H   0  0  0  0  0  0
    4.0923  -31.5110   -4.5981 H   0  0  0  0  0  0
  1  2  1  0  0  0
  1 30  1  0  0  0
  1 31  1  0  0  0
  1 32  1  0  0  0
  2  3  2  0  0  0
  2 29  1  0  0  0
  3  4  1  0  0  0
  3 33  1  0  0  0
  4  5  1  0  0  0
  4 28  2  0  0  0
  5  6  1  0  0  0
  5 34  1  0  0  0
  5 35  1  0  0  0
  6  7  1  0  0  0
  6 27  1  0  0  0
  7  8  2  0  0  0
  7 36  1  0  0  0
  8  9  1  0  0  0
  8 26  1  0  0  0
  9 10  2  0  0  0
  9 25  1  0  0  0
 10 11  1  0  0  0
 10 12  1  0  0  0
 12 13  2  0  0  0
 12 37  1  0  0  0
 13 14  1  0  0  0
 14 15  1  0  0  0
 14 25  2  0  0  0
 15 16  2  0  0  0
 16 17  1  0  0  0
 16 24  1  0  0  0
 17 18  2  0  0  0
 17 22  1  0  0  0
 18 19  1  0  0  0
 18 38  1  0  0  0
 19 20  1  0  0  0
 19 21  1  0  0  0
 20 39  1  0  0  0
 20 40  1  0  0  0
 20 41  1  0  0  0
 21 22  2  0  0  0
 22 23  1  0  0  0
 23 42  1  0  0  0
 23 43  1  0  0  0
 23 44  1  0  0  0
 24 25  1  0  0  0
 24 46  1  0  0  0
 26 27  2  0  0  0
 26 45  1  0  0  0
 28 29  1  0  0  0
M  CHG  1  24   1
M  END
> <s_m_source_file>
../5aae_ligand.sdf

> <i_m_source_file_index>
1

> <s_epik_input>
W0NIM11jMVtjSF1jKG5vMSlbQ0gyXW4yW2NIXWMoW2NIXW4yKS1jKGMoQ2wpW2NIXW4zKWMoYzM0KVtuSF1jKG40KS1jNVtjSF1uKFtDSDNdKW5jNVtDSDNd

> <s_epik_cmdline>
J2VwaWtfYXBwJywgJy1pbWFlJywgJ2xpZ2FuZF9wcm8ubWFlJywgJy1vbWFlJywgJ2xpZ2FuZF9wcmVwLm1hZScsICctbXMnLCAnMScsICctcGgnLCAnNycsICctcGh0JywgJzAuNScsICctbnQn

> <r_lp_tautomer_probability>
1

> <r_epik_Ionization_Penalty>
  0.0001

> <r_epik_Ionization_Penalty_Charging>
  0.0000

> <r_epik_Ionization_Penalty_Neutral>
  0.0001

> <r_epik_State_Penalty>
  0.2522

> <r_epik_Charging_Adjusted_Penalty>
0.252156827155385

> <i_epik_Tot_Q>
1

> <i_epik_Tot_abs_Q>
1

> <s_epik_Chemistry_Notes>
This compound has an imine and may undergo hydrolysis.

$$$$
