5aaf_ligand
                    3D
 Schrodinger Suite 2020-3.
 57 61  0  0  1  0            999 V2000
   -4.0420   32.8200    1.3250 C   0  0  0  0  0  0
   -5.2720   32.4400    0.7680 N   0  0  0  0  0  0
   -6.3090   33.4380    0.6200 C   0  0  0  0  0  0
   -5.4730   31.0180    0.3480 C   0  0  0  0  0  0
   -4.5680   30.2450    0.5010 O   0  0  0  0  0  0
   -6.7890   30.5010   -0.2740 C   0  0  0  0  0  0
   -8.0130   30.5610    0.4410 C   0  0  0  0  0  0
   -9.1710   30.0890   -0.1320 C   0  0  0  0  0  0
   -9.1450   29.5340   -1.4180 C   0  0  0  0  0  0
   -7.9290   29.4570   -2.1380 C   0  0  0  0  0  0
   -7.9380   28.8420   -3.5380 C   0  0  0  0  0  0
   -6.7130   29.1040   -4.2650 N   0  0  0  0  0  0
   -6.5830   29.9330   -5.3470 C   0  0  0  0  0  0
   -5.2740   29.8980   -5.7500 C   0  0  0  0  0  0
   -4.6840   30.6240   -6.8370 C   0  0  0  0  0  0
   -4.9370   30.2930   -8.1880 C   0  0  0  0  0  0
   -5.9760   28.9890   -8.5750 Cl  0  0  0  0  0  0
   -4.3320   31.0380   -9.2350 C   0  0  0  0  0  0
   -3.5040   32.0810   -8.9230 N   0  0  0  0  0  0
   -3.2280   32.4400   -7.6010 C   0  0  0  0  0  0
   -2.4400   33.4330   -7.0500 N   0  0  0  0  0  0
   -2.5230   33.3410   -5.6840 C   0  0  0  0  0  0
   -1.8370   34.2100   -4.7650 C   0  0  0  0  0  0
   -0.8770   35.1500   -5.1190 C   0  0  0  0  0  0
   -0.4670   35.7710   -4.0020 N   0  0  0  0  0  0
    0.5180   36.8090   -3.9410 C   0  0  0  0  0  0
   -1.1300   35.2630   -2.9530 N   0  0  0  0  0  0
   -1.9740   34.3100   -3.3840 C   0  0  0  0  0  0
   -2.8900   33.5090   -2.4940 C   0  0  0  0  0  0
   -3.3460   32.3110   -5.3670 N   0  3  0  0  0  0
   -3.8000   31.7320   -6.5490 C   0  0  0  0  0  0
   -4.6110   29.0220   -4.8780 C   0  0  0  0  0  0
   -5.5190   28.5610   -4.0060 N   0  0  0  0  0  0
   -6.7650   29.9350   -1.5620 C   0  0  0  0  0  0
   -4.0677   33.8910    1.5744 H   0  0  0  0  0  0
   -3.2371   32.6317    0.5993 H   0  0  0  0  0  0
   -3.8567   32.2352    2.2381 H   0  0  0  0  0  0
   -5.9422   34.4059    0.9923 H   0  0  0  0  0  0
   -7.1948   33.1348    1.1975 H   0  0  0  0  0  0
   -6.5784   33.5320   -0.4423 H   0  0  0  0  0  0
   -8.0358   30.9819    1.4462 H   0  0  0  0  0  0
  -10.1114   30.1470    0.4160 H   0  0  0  0  0  0
  -10.0655   29.1598   -1.8661 H   0  0  0  0  0  0
   -8.0588   27.7515   -3.4587 H   0  0  0  0  0  0
   -8.7731   29.2622   -4.1177 H   0  0  0  0  0  0
   -7.3801   30.5175   -5.8065 H   0  0  0  0  0  0
   -4.5256   30.7812  -10.2765 H   0  0  0  0  0  0
   -0.5188   35.3487   -6.1291 H   0  0  0  0  0  0
    0.8908   37.0207   -4.9540 H   0  0  0  0  0  0
    1.3534   36.4847   -3.3031 H   0  0  0  0  0  0
    0.0662   37.7188   -3.5190 H   0  0  0  0  0  0
   -3.4687   32.8012   -3.1056 H   0  0  0  0  0  0
   -3.5781   34.1884   -1.9697 H   0  0  0  0  0  0
   -2.2915   32.9530   -1.7574 H   0  0  0  0  0  0
   -3.5524   28.7636   -4.9044 H   0  0  0  0  0  0
   -5.8243   29.8727   -2.1091 H   0  0  0  0  0  0
   -3.5446   32.0702   -4.3122 H   0  0  0  0  0  0
  1  2  1  0  0  0
  1 35  1  0  0  0
  1 36  1  0  0  0
  1 37  1  0  0  0
  2  3  1  0  0  0
  2  4  1  0  0  0
  3 38  1  0  0  0
  3 39  1  0  0  0
  3 40  1  0  0  0
  4  5  2  0  0  0
  4  6  1  0  0  0
  6  7  2  0  0  0
  6 34  1  0  0  0
  7  8  1  0  0  0
  7 41  1  0  0  0
  8  9  2  0  0  0
  8 42  1  0  0  0
  9 10  1  0  0  0
  9 43  1  0  0  0
 10 11  1  0  0  0
 10 34  2  0  0  0
 11 12  1  0  0  0
 11 44  1  0  0  0
 11 45  1  0  0  0
 12 13  1  0  0  0
 12 33  1  0  0  0
 13 14  2  0  0  0
 13 46  1  0  0  0
 14 15  1  0  0  0
 14 32  1  0  0  0
 15 16  2  0  0  0
 15 31  1  0  0  0
 16 17  1  0  0  0
 16 18  1  0  0  0
 18 19  2  0  0  0
 18 47  1  0  0  0
 19 20  1  0  0  0
 20 21  1  0  0  0
 20 31  2  0  0  0
 21 22  2  0  0  0
 22 23  1  0  0  0
 22 30  1  0  0  0
 23 24  2  0  0  0
 23 28  1  0  0  0
 24 25  1  0  0  0
 24 48  1  0  0  0
 25 26  1  0  0  0
 25 27  1  0  0  0
 26 49  1  0  0  0
 26 50  1  0  0  0
 26 51  1  0  0  0
 27 28  2  0  0  0
 28 29  1  0  0  0
 29 52  1  0  0  0
 29 53  1  0  0  0
 29 54  1  0  0  0
 30 31  1  0  0  0
 30 57  1  0  0  0
 32 33  2  0  0  0
 32 55  1  0  0  0
 34 56  1  0  0  0
M  CHG  1  30   1
M  END
> <s_m_source_file>
../5aaf_ligand.sdf

> <i_m_source_file_index>
1

> <s_epik_input>
W0NIM11OKFtDSDNdKUMoPU8pYzFbY0hdW2NIXVtjSF1jKFtjSF0xKVtDSDJdbjJbY0hdYyhbY0hdbjIpLWMoYyhDbClbY0hdbjMpYyhjMzQpW25IXWMobjQpLWM1W2NIXW4oW0NIM10pbmM1W0NIM10=

> <s_epik_cmdline>
J2VwaWtfYXBwJywgJy1pbWFlJywgJ2xpZ2FuZF9wcm8ubWFlJywgJy1vbWFlJywgJ2xpZ2FuZF9wcmVwLm1hZScsICctbXMnLCAnMScsICctcGgnLCAnNycsICctcGh0JywgJzAuNScsICctbnQn

> <r_lp_tautomer_probability>
1

> <r_epik_Ionization_Penalty>
  0.0002

> <r_epik_Ionization_Penalty_Charging>
  0.0000

> <r_epik_Ionization_Penalty_Neutral>
  0.0002

> <r_epik_State_Penalty>
  0.2522

> <r_epik_Charging_Adjusted_Penalty>
0.252156827155379

> <i_epik_Tot_Q>
1

> <i_epik_Tot_abs_Q>
1

> <s_epik_Chemistry_Notes>
This compound has an imine and may undergo hydrolysis.

$$$$
