5aag_ligand
                    3D
 Schrodinger Suite 2020-3.
 67 72  0  0  1  0            999 V2000
   -6.6390   31.8550    6.1420 C   0  0  0  0  0  0
   -6.0520   31.6350    5.0790 N   0  3  0  0  0  0
   -5.6360   32.8260    4.4720 C   0  0  0  0  0  0
   -4.9100   32.5690    3.1600 C   0  0  0  0  0  0
   -5.6170   31.7690    2.2990 N   0  0  0  0  0  0
   -5.7870   32.1070    0.9020 C   0  0  0  0  0  0
   -5.3010   33.1280    0.4630 O   0  0  0  0  0  0
   -6.5580   31.2130   -0.0700 C   0  0  0  0  0  0
   -7.9440   31.2670   -0.1460 C   0  0  0  0  0  0
   -8.6280   30.4390   -1.0480 C   0  0  0  0  0  0
   -7.9140   29.5590   -1.8770 C   0  0  0  0  0  0
   -6.5330   29.4980   -1.7900 C   0  0  0  0  0  0
   -5.7520   28.5570   -2.6850 C   0  0  0  0  0  0
   -5.8850   29.0810   -4.0830 N   0  0  0  0  0  0
   -4.9030   29.7020   -4.7700 C   0  0  0  0  0  0
   -5.4120   30.0560   -6.0390 C   0  0  0  0  0  0
   -4.7110   30.7280   -7.0640 C   0  0  0  0  0  0
   -4.8630   30.3970   -8.4260 C   0  0  0  0  0  0
   -5.9230   29.1270   -8.9620 Cl  0  0  0  0  0  0
   -4.1370   31.1140   -9.4030 C   0  0  0  0  0  0
   -3.3010   32.1050   -9.0670 N   0  0  0  0  0  0
   -3.1270   32.4580   -7.7380 C   0  0  0  0  0  0
   -2.3450   33.4230   -7.1290 N   0  0  0  0  0  0
   -2.5360   33.3580   -5.7830 C   0  0  0  0  0  0
   -1.8810   34.2100   -4.8540 C   0  0  0  0  0  0
   -1.0120   35.2540   -5.2080 C   0  0  0  0  0  0
   -0.5770   35.8400   -4.0830 N   0  0  0  0  0  0
    0.3340   36.9590   -4.0230 C   0  0  0  0  0  0
   -1.1330   35.2090   -3.0180 N   0  0  0  0  0  0
   -1.9330   34.2100   -3.4620 C   0  0  0  0  0  0
   -2.7260   33.2780   -2.5690 C   0  0  0  0  0  0
   -3.4290   32.3690   -5.5310 N   0  3  0  0  0  0
   -3.8140   31.7910   -6.7410 C   0  0  0  0  0  0
   -6.7300   29.6360   -6.0560 C   0  0  0  0  0  0
   -6.9930   29.0380   -4.8490 N   0  0  0  0  0  0
   -5.8480   30.3310   -0.8940 C   0  0  0  0  0  0
   -6.1170   30.6340    2.8770 C   0  0  0  0  0  0
   -6.8390   30.8810    4.2010 C   0  0  0  0  0  0
   -5.9901   32.4481    6.8032 H   0  0  0  0  0  0
   -6.8847   30.9001    6.6296 H   0  0  0  0  0  0
   -7.5654   32.4129    5.9406 H   0  0  0  0  0  0
   -5.1994   31.0503    5.4546 H   0  0  0  0  0  0
   -6.5126   33.4568    4.2633 H   0  0  0  0  0  0
   -4.9512   33.3614    5.1461 H   0  0  0  0  0  0
   -4.7261   33.5257    2.6492 H   0  0  0  0  0  0
   -3.9502   32.0715    3.3633 H   0  0  0  0  0  0
   -8.4993   31.9521    0.4946 H   0  0  0  0  0  0
   -9.7158   30.4787   -1.1056 H   0  0  0  0  0  0
   -8.4452   28.9254   -2.5873 H   0  0  0  0  0  0
   -4.6978   28.5432   -2.3713 H   0  0  0  0  0  0
   -6.1714   27.5432   -2.6059 H   0  0  0  0  0  0
   -3.8932   29.8964   -4.4085 H   0  0  0  0  0  0
   -4.2600   30.8547  -10.4545 H   0  0  0  0  0  0
   -0.7377   35.5395   -6.2236 H   0  0  0  0  0  0
    0.6165   37.2570   -5.0435 H   0  0  0  0  0  0
    1.2352   36.6685   -3.4631 H   0  0  0  0  0  0
   -0.1558   37.8038   -3.5167 H   0  0  0  0  0  0
   -3.2868   32.5641   -3.1901 H   0  0  0  0  0  0
   -3.4289   33.8645   -1.9591 H   0  0  0  0  0  0
   -2.0381   32.7287   -1.9094 H   0  0  0  0  0  0
   -7.4332   29.7581   -6.8799 H   0  0  0  0  0  0
   -4.7601   30.2919   -0.8387 H   0  0  0  0  0  0
   -6.8398   30.1629    2.1946 H   0  0  0  0  0  0
   -5.2941   29.9330    3.0804 H   0  0  0  0  0  0
   -7.0701   29.9081    4.6593 H   0  0  0  0  0  0
   -7.7751   31.4199    3.9928 H   0  0  0  0  0  0
   -3.7273   32.1480   -4.4955 H   0  0  0  0  0  0
  1  2  1  0  0  0
  1 39  1  0  0  0
  1 40  1  0  0  0
  1 41  1  0  0  0
  2  3  1  0  0  0
  2 38  1  0  0  0
  2 42  1  0  0  0
  3  4  1  0  0  0
  3 43  1  0  0  0
  3 44  1  0  0  0
  4  5  1  0  0  0
  4 45  1  0  0  0
  4 46  1  0  0  0
  5  6  1  0  0  0
  5 37  1  0  0  0
  6  7  2  0  0  0
  6  8  1  0  0  0
  8  9  2  0  0  0
  8 36  1  0  0  0
  9 10  1  0  0  0
  9 47  1  0  0  0
 10 11  2  0  0  0
 10 48  1  0  0  0
 11 12  1  0  0  0
 11 49  1  0  0  0
 12 13  1  0  0  0
 12 36  2  0  0  0
 13 14  1  0  0  0
 13 50  1  0  0  0
 13 51  1  0  0  0
 14 15  1  0  0  0
 14 35  1  0  0  0
 15 16  2  0  0  0
 15 52  1  0  0  0
 16 17  1  0  0  0
 16 34  1  0  0  0
 17 18  2  0  0  0
 17 33  1  0  0  0
 18 19  1  0  0  0
 18 20  1  0  0  0
 20 21  2  0  0  0
 20 53  1  0  0  0
 21 22  1  0  0  0
 22 23  1  0  0  0
 22 33  2  0  0  0
 23 24  2  0  0  0
 24 25  1  0  0  0
 24 32  1  0  0  0
 25 26  2  0  0  0
 25 30  1  0  0  0
 26 27  1  0  0  0
 26 54  1  0  0  0
 27 28  1  0  0  0
 27 29  1  0  0  0
 28 55  1  0  0  0
 28 56  1  0  0  0
 28 57  1  0  0  0
 29 30  2  0  0  0
 30 31  1  0  0  0
 31 58  1  0  0  0
 31 59  1  0  0  0
 31 60  1  0  0  0
 32 33  1  0  0  0
 32 67  1  0  0  0
 34 35  2  0  0  0
 34 61  1  0  0  0
 36 62  1  0  0  0
 37 38  1  0  0  0
 37 63  1  0  0  0
 37 64  1  0  0  0
 38 65  1  0  0  0
 38 66  1  0  0  0
M  CHG  2   2   1  32   1
M  END
> <s_m_source_file>
../5aag_ligand.sdf

> <i_m_source_file_index>
1

> <s_epik_input>
W0NIM11bTkgrXTFbQ0gyXVtDSDJdTihbQ0gyXVtDSDJdMSlDKD1PKWMyW2NIXVtjSF1bY0hdYyhbY0hdMilbQ0gyXW4zW2NIXWMoW2NIXW4zKS1jKGMoQ2wpW2NIXW40KWMoYzQ1KVtuSF1jKG41KS1jNltjSF1uKFtDSDNdKW5jNltDSDNd

> <s_epik_cmdline>
J2VwaWtfYXBwJywgJy1pbWFlJywgJ2xpZ2FuZF9wcm8ubWFlJywgJy1vbWFlJywgJ2xpZ2FuZF9wcmVwLm1hZScsICctbXMnLCAnMScsICctcGgnLCAnNycsICctcGh0JywgJzAuNScsICctbnQn

> <r_lp_tautomer_probability>
1

> <r_epik_Ionization_Penalty>
  0.3230

> <r_epik_Ionization_Penalty_Charging>
  0.3228

> <r_epik_Ionization_Penalty_Neutral>
  0.0002

> <r_epik_State_Penalty>
  0.3175

> <r_epik_Charging_Adjusted_Penalty>
0.640342393722261

> <i_epik_Tot_Q>
2

> <i_epik_Tot_abs_Q>
2

> <s_epik_Chemistry_Notes>
This compound has an imine and may undergo hydrolysis.

$$$$
