5ab0_ligand
                    3D
 Schrodinger Suite 2020-3.
187191  0  0  1  0            999 V2000
   16.6320    3.5890    3.1400 C   0  0  0  0  0  0
   15.7400    2.3460    3.2100 C   0  0  0  0  0  0
   18.3310    4.6300    1.8660 C   0  0  1  0  0  0
   20.8040    5.6740    1.8120 O   0  0  0  0  0  0
   20.1000    4.4110    1.8860 P   0  0  2  0  0  0
   20.5420    3.5090    0.8470 O   0  0  0  0  0  0
   17.8800    5.2650    0.8450 N   0  3  0  0  0  0
   17.7100    3.4220    2.0630 C   0  0  0  0  0  0
   16.0190    1.1890    3.9300 C   0  0  0  0  0  0
   15.1120    0.1070    3.9300 C   0  0  0  0  0  0
   13.9360    0.1300    3.2630 C   0  0  0  0  0  0
   13.6390    1.2960    2.5410 C   0  0  0  0  0  0
   14.5380    2.3840    2.5280 C   0  0  0  0  0  0
   21.5380    2.6670    3.1580 C   0  0  2  0  0  0
   21.2850    1.7090    4.3150 C   0  0  0  0  0  0
   22.0910    1.6090    5.2070 O   0  0  0  0  0  0
   22.8890    3.4270    3.4380 C   0  0  0  0  0  0
   24.1880    2.6410    3.2460 C   0  0  0  0  0  0
   25.3910    3.5600    3.1520 C   0  0  0  0  0  0
   24.0250    1.8810    1.9200 C   0  0  0  0  0  0
   20.4250    3.7410    3.2870 C   0  0  0  0  0  0
   20.0570    0.9640    4.3340 N   0  0  0  0  0  0
   19.7840   -0.0250    5.4040 C   0  0  2  0  0  0
   20.8850   -1.0730    5.4320 C   0  0  0  0  0  0
   21.0960   -1.7230    6.4530 O   0  0  0  0  0  0
   18.4160   -0.7160    5.2500 C   0  0  0  0  0  0
   18.0930   -1.2120    3.8450 C   0  0  0  0  0  0
   18.7050   -2.5280    3.5390 C   0  0  0  0  0  0
   18.5170   -2.8510    2.0850 C   0  0  0  0  0  0
   18.8020   -1.6230    1.2890 N   0  3  0  0  0  0
   21.5980   -1.2080    4.3140 N   0  0  0  0  0  0
   22.8930   -1.8610    4.2700 C   0  0  2  0  0  0
   23.8160   -1.3080    5.3600 C   0  0  0  0  0  0
   25.0030   -1.1180    5.1260 O   0  0  0  0  0  0
   23.5530   -1.6800    2.8840 C   0  0  0  0  0  0
   22.8730   -2.4310    1.7730 C   0  0  0  0  0  0
   21.6710   -2.0320    1.2270 N   0  0  0  0  0  0
   23.2330   -3.5560    1.1020 C   0  0  0  0  0  0
   21.3130   -2.8860    0.2790 C   0  0  0  0  0  0
   22.2450   -3.8180    0.1800 N   0  0  0  0  0  0
   23.2630   -1.0640    6.5490 N   0  0  0  0  0  0
   24.0180   -0.9060    7.7820 C   0  0  2  0  0  0
   24.9860   -2.0660    7.9420 C   0  0  0  0  0  0
   25.9290   -1.9650    8.7090 O   0  0  0  0  0  0
   23.0910   -0.8390    9.0070 C   0  0  0  0  0  0
   23.7740   -1.1840   10.2960 C   0  0  0  0  0  0
   24.9010   -0.5170   10.7410 N   0  0  0  0  0  0
   23.5170   -2.1470   11.2180 C   0  0  0  0  0  0
   25.2940   -1.0410   11.8910 C   0  0  0  0  0  0
   24.4700   -2.0300   12.2030 N   0  0  0  0  0  0
   24.7420   -3.1610    7.2230 N   0  0  0  0  0  0
   25.6070   -4.3360    7.2610 C   0  0  2  0  0  0
   26.8610   -4.2570    6.3540 C   0  0  0  0  0  0
   26.7030   -4.2720    5.1210 O   0  0  0  0  0  0
   24.7870   -5.6060    6.9100 C   0  0  0  0  0  0
   28.0970   -4.1600    6.8900 N   0  0  0  0  0  0
   28.5390   -3.7710    8.2640 C   0  0  2  0  0  0
   27.6680   -4.1400    9.5060 C   0  0  0  0  0  0
   27.5210   -3.3420   10.4330 O   0  0  0  0  0  0
   28.7870   -2.2450    8.2290 C   0  0  0  0  0  0
   29.6380   -1.6890    9.3690 C   0  0  0  0  0  0
   31.0220   -1.8850    9.3920 C   0  0  0  0  0  0
   29.0530   -0.8900   10.3690 C   0  0  0  0  0  0
   31.8090   -1.3330   10.4190 C   0  0  0  0  0  0
   29.8180   -0.3350   11.4100 C   0  0  0  0  0  0
   31.2010   -0.5520   11.4360 C   0  0  0  0  0  0
   27.0970   -5.3440    9.5320 N   0  0  0  0  0  0
   26.2050   -5.7140   10.6270 C   0  0  2  0  0  0
   27.1000   -5.8630   11.8480 C   0  0  0  0  0  0
   26.9480   -5.1400   12.8440 O   0  0  0  0  0  0
   25.4230   -7.0000   10.3140 C   0  0  0  0  0  0
   25.9750   -7.7030    9.2060 O   0  0  0  0  0  0
   28.0500   -6.7890   11.7330 N   0  0  0  0  0  0
   29.2270   -6.8420   12.5930 C   0  0  2  0  0  0
   30.4280   -7.2310   11.7410 C   0  0  0  0  0  0
   30.6710   -6.6020   10.7030 O   0  0  0  0  0  0
   29.0300   -7.8190   13.7510 C   0  0  0  0  0  0
   28.3030   -7.2190   14.9090 C   0  0  0  0  0  0
   28.5050   -5.9000   15.2460 C   0  0  0  0  0  0
   27.4090   -7.9610   15.6490 C   0  0  0  0  0  0
   27.8280   -5.3350   16.2930 C   0  0  0  0  0  0
   26.7380   -7.4020   16.7020 C   0  0  0  0  0  0
   26.9400   -6.0920   17.0220 C   0  0  0  0  0  0
   31.1670   -8.2590   12.1690 N   0  0  0  0  0  0
   32.3460   -8.7650   11.3880 C   0  0  1  0  0  0
   33.4880   -9.2270   12.3090 C   0  0  0  0  0  0
   34.8790   -9.2010   11.6470 C   0  0  0  0  0  0
   35.0430   -8.1120   10.5730 C   0  0  0  0  0  0
   35.2340   -8.7100    9.1700 C   0  0  0  0  0  0
   36.6720   -9.0260    8.9220 N   0  3  0  0  0  0
   31.9440   -9.8400   10.4020 C   0  0  0  0  0  0
   30.9920   -9.6430    9.6490 O   0  0  0  0  0  0
   32.6680  -11.0680   10.3450 N   0  0  0  0  0  0
   16.0176    4.4679    2.8949 H   0  0  0  0  0  0
   17.1220    3.7439    4.1126 H   0  0  0  0  0  0
   17.7530    5.2868    2.5327 H   0  0  0  0  0  0
   20.7128    6.3027    0.9140 H   0  0  0  0  0  0
   18.4154    6.2203    0.7415 H   0  0  0  0  0  0
   16.8057    5.4594    0.9793 H   0  0  0  0  0  0
   18.0326    4.6592   -0.0604 H   0  0  0  0  0  0
   18.4461    2.6746    2.3939 H   0  0  0  0  0  0
   17.2427    3.0864    1.1254 H   0  0  0  0  0  0
   16.9458    1.1171    4.4991 H   0  0  0  0  0  0
   15.3719   -0.7888    4.4941 H   0  0  0  0  0  0
   13.2508   -0.7175    3.2851 H   0  0  0  0  0  0
   12.7042    1.3622    1.9844 H   0  0  0  0  0  0
   14.2772    3.2797    1.9642 H   0  0  0  0  0  0
   21.5472    2.1300    2.1980 H   0  0  0  0  0  0
   22.9685    4.2935    2.7650 H   0  0  0  0  0  0
   22.9064    3.7712    4.4826 H   0  0  0  0  0  0
   24.3693    1.9793    4.1058 H   0  0  0  0  0  0
   25.5105    4.1056    4.0997 H   0  0  0  0  0  0
   25.2409    4.2778    2.3321 H   0  0  0  0  0  0
   26.2940    2.9631    2.9561 H   0  0  0  0  0  0
   23.1532    1.2134    1.9848 H   0  0  0  0  0  0
   24.9291    1.2855    1.7252 H   0  0  0  0  0  0
   23.8761    2.6002    1.1011 H   0  0  0  0  0  0
   20.7658    4.5132    3.9924 H   0  0  0  0  0  0
   19.5188    3.2582    3.6816 H   0  0  0  0  0  0
   19.3144    1.1352    3.5408 H   0  0  0  0  0  0
   19.7793    0.5594    6.3359 H   0  0  0  0  0  0
   18.3730   -1.5952    5.9097 H   0  0  0  0  0  0
   17.6166   -0.0121    5.5247 H   0  0  0  0  0  0
   17.0036   -1.3168    3.7346 H   0  0  0  0  0  0
   18.4686   -0.4893    3.1056 H   0  0  0  0  0  0
   19.7804   -2.4943    3.7678 H   0  0  0  0  0  0
   18.2245   -3.3067    4.1495 H   0  0  0  0  0  0
   19.2089   -3.6558    1.7957 H   0  0  0  0  0  0
   17.4811   -3.1787    1.9131 H   0  0  0  0  0  0
   18.6692   -1.8406    0.2190 H   0  0  0  0  0  0
   19.8374   -1.2997    1.4717 H   0  0  0  0  0  0
   18.1096   -0.8226    1.5891 H   0  0  0  0  0  0
   21.1589   -0.7947    3.3940 H   0  0  0  0  0  0
   22.6728   -2.9214    4.4627 H   0  0  0  0  0  0
   23.5401   -0.6153    2.6080 H   0  0  0  0  0  0
   24.5931   -2.0359    2.9238 H   0  0  0  0  0  0
   24.1059   -4.2212    1.1768 H   0  0  0  0  0  0
   20.4031   -2.8294   -0.3185 H   0  0  0  0  0  0
   22.1660   -0.9834    6.5616 H   0  0  0  0  0  0
   24.5602    0.0441    7.6666 H   0  0  0  0  0  0
   22.6920    0.1809    9.1095 H   0  0  0  0  0  0
   22.2591   -1.5467    8.8765 H   0  0  0  0  0  0
   22.7436   -2.9259   11.2907 H   0  0  0  0  0  0
   26.1502   -0.7142   12.4811 H   0  0  0  0  0  0
   23.8477   -3.1569    6.5825 H   0  0  0  0  0  0
   25.9541   -4.3231    8.3047 H   0  0  0  0  0  0
   23.8980   -5.6585    7.5557 H   0  0  0  0  0  0
   25.4088   -6.4994    7.0688 H   0  0  0  0  0  0
   24.4730   -5.5602    5.8568 H   0  0  0  0  0  0
   28.8432   -4.4270    6.1272 H   0  0  0  0  0  0
   29.4241   -4.4093    8.4028 H   0  0  0  0  0  0
   29.3069   -1.9793    7.2967 H   0  0  0  0  0  0
   27.8238   -1.7158    8.2753 H   0  0  0  0  0  0
   31.4964   -2.4720    8.6056 H   0  0  0  0  0  0
   27.9808   -0.6967   10.3357 H   0  0  0  0  0  0
   32.8852   -1.5051   10.4336 H   0  0  0  0  0  0
   29.3392    0.2583   12.1890 H   0  0  0  0  0  0
   31.8077   -0.1231   12.2335 H   0  0  0  0  0  0
   27.3009   -6.0605    8.7227 H   0  0  0  0  0  0
   25.4561   -4.9204   10.7663 H   0  0  0  0  0  0
   25.4464   -7.6656   11.1895 H   0  0  0  0  0  0
   24.3799   -6.7458   10.0745 H   0  0  0  0  0  0
   25.5166   -8.6441    8.8681 H   0  0  0  0  0  0
   27.9138   -7.5394   10.9403 H   0  0  0  0  0  0
   29.3596   -5.8359   13.0175 H   0  0  0  0  0  0
   28.4466   -8.6850   13.4049 H   0  0  0  0  0  0
   30.0108   -8.1593   14.1145 H   0  0  0  0  0  0
   29.2114   -5.2991   14.6733 H   0  0  0  0  0  0
   27.2341   -9.0059   15.3926 H   0  0  0  0  0  0
   27.9920   -4.2881   16.5485 H   0  0  0  0  0  0
   26.0415   -8.0041   17.2855 H   0  0  0  0  0  0
   26.3981   -5.6446   17.8552 H   0  0  0  0  0  0
   30.8917   -8.7369   13.1207 H   0  0  0  0  0  0
   32.7091   -7.9122   10.7957 H   0  0  0  0  0  0
   33.5365   -8.5707   13.1904 H   0  0  0  0  0  0
   33.3025  -10.2619   12.6323 H   0  0  0  0  0  0
   35.6465   -9.0179   12.4135 H   0  0  0  0  0  0
   35.0712  -10.1681   11.1594 H   0  0  0  0  0  0
   34.1457   -7.4760   10.5557 H   0  0  0  0  0  0
   35.9242   -7.4964   10.8065 H   0  0  0  0  0  0
   34.6465   -9.6359    9.0830 H   0  0  0  0  0  0
   34.8934   -7.9873    8.4139 H   0  0  0  0  0  0
   36.7853   -9.4520    7.9142 H   0  0  0  0  0  0
   37.0216   -9.7537    9.6691 H   0  0  0  0  0  0
   37.2685   -8.1051    9.0000 H   0  0  0  0  0  0
   33.5185  -11.2370   11.0218 H   0  0  0  0  0  0
   32.3757  -11.8459    9.6242 H   0  0  0  0  0  0
  1  2  1  0  0  0
  1  8  1  0  0  0
  1 94  1  0  0  0
  1 95  1  0  0  0
  2  9  2  0  0  0
  2 13  1  0  0  0
  3  5  1  0  0  0
  3  7  1  0  0  0
  3  8  1  0  0  0
  3 96  1  0  0  0
  4  5  1  0  0  0
  4 97  1  0  0  0
  5  6  2  0  0  0
  5 21  1  0  0  0
  7 98  1  0  0  0
  7 99  1  0  0  0
  7100  1  0  0  0
  8101  1  0  0  0
  8102  1  0  0  0
  9 10  1  0  0  0
  9103  1  0  0  0
 10 11  2  0  0  0
 10104  1  0  0  0
 11 12  1  0  0  0
 11105  1  0  0  0
 12 13  2  0  0  0
 12106  1  0  0  0
 13107  1  0  0  0
 14 15  1  0  0  0
 14 17  1  0  0  0
 14 21  1  0  0  0
 14108  1  0  0  0
 15 16  2  0  0  0
 15 22  1  0  0  0
 17 18  1  0  0  0
 17109  1  0  0  0
 17110  1  0  0  0
 18 19  1  0  0  0
 18 20  1  0  0  0
 18111  1  0  0  0
 19112  1  0  0  0
 19113  1  0  0  0
 19114  1  0  0  0
 20115  1  0  0  0
 20116  1  0  0  0
 20117  1  0  0  0
 21118  1  0  0  0
 21119  1  0  0  0
 22 23  1  0  0  0
 22120  1  0  0  0
 23 24  1  0  0  0
 23 26  1  0  0  0
 23121  1  0  0  0
 24 25  2  0  0  0
 24 31  1  0  0  0
 26 27  1  0  0  0
 26122  1  0  0  0
 26123  1  0  0  0
 27 28  1  0  0  0
 27124  1  0  0  0
 27125  1  0  0  0
 28 29  1  0  0  0
 28126  1  0  0  0
 28127  1  0  0  0
 29 30  1  0  0  0
 29128  1  0  0  0
 29129  1  0  0  0
 30130  1  0  0  0
 30131  1  0  0  0
 30132  1  0  0  0
 31 32  1  0  0  0
 31133  1  0  0  0
 32 33  1  0  0  0
 32 35  1  0  0  0
 32134  1  0  0  0
 33 34  2  0  0  0
 33 41  1  0  0  0
 35 36  1  0  0  0
 35135  1  0  0  0
 35136  1  0  0  0
 36 37  2  0  0  0
 36 38  1  0  0  0
 37 39  1  0  0  0
 38 40  2  0  0  0
 38137  1  0  0  0
 39 40  1  0  0  0
 39138  1  0  0  0
 41 42  1  0  0  0
 41139  1  0  0  0
 42 43  1  0  0  0
 42 45  1  0  0  0
 42140  1  0  0  0
 43 44  2  0  0  0
 43 51  1  0  0  0
 45 46  1  0  0  0
 45141  1  0  0  0
 45142  1  0  0  0
 46 47  2  0  0  0
 46 48  1  0  0  0
 47 49  1  0  0  0
 48 50  2  0  0  0
 48143  1  0  0  0
 49 50  1  0  0  0
 49144  1  0  0  0
 51 52  1  0  0  0
 51145  1  0  0  0
 52 53  1  0  0  0
 52 55  1  0  0  0
 52146  1  0  0  0
 53 54  2  0  0  0
 53 56  1  0  0  0
 55147  1  0  0  0
 55148  1  0  0  0
 55149  1  0  0  0
 56 57  1  0  0  0
 56150  1  0  0  0
 57 58  1  0  0  0
 57 60  1  0  0  0
 57151  1  0  0  0
 58 59  2  0  0  0
 58 67  1  0  0  0
 60 61  1  0  0  0
 60152  1  0  0  0
 60153  1  0  0  0
 61 62  2  0  0  0
 61 63  1  0  0  0
 62 64  1  0  0  0
 62154  1  0  0  0
 63 65  2  0  0  0
 63155  1  0  0  0
 64 66  2  0  0  0
 64156  1  0  0  0
 65 66  1  0  0  0
 65157  1  0  0  0
 66158  1  0  0  0
 67 68  1  0  0  0
 67159  1  0  0  0
 68 69  1  0  0  0
 68 71  1  0  0  0
 68160  1  0  0  0
 69 70  2  0  0  0
 69 73  1  0  0  0
 71 72  1  0  0  0
 71161  1  0  0  0
 71162  1  0  0  0
 72163  1  0  0  0
 73 74  1  0  0  0
 73164  1  0  0  0
 74 75  1  0  0  0
 74 77  1  0  0  0
 74165  1  0  0  0
 75 76  2  0  0  0
 75 84  1  0  0  0
 77 78  1  0  0  0
 77166  1  0  0  0
 77167  1  0  0  0
 78 79  2  0  0  0
 78 80  1  0  0  0
 79 81  1  0  0  0
 79168  1  0  0  0
 80 82  2  0  0  0
 80169  1  0  0  0
 81 83  2  0  0  0
 81170  1  0  0  0
 82 83  1  0  0  0
 82171  1  0  0  0
 83172  1  0  0  0
 84 85  1  0  0  0
 84173  1  0  0  0
 85 86  1  0  0  0
 85 91  1  0  0  0
 85174  1  0  0  0
 86 87  1  0  0  0
 86175  1  0  0  0
 86176  1  0  0  0
 87 88  1  0  0  0
 87177  1  0  0  0
 87178  1  0  0  0
 88 89  1  0  0  0
 88179  1  0  0  0
 88180  1  0  0  0
 89 90  1  0  0  0
 89181  1  0  0  0
 89182  1  0  0  0
 90183  1  0  0  0
 90184  1  0  0  0
 90185  1  0  0  0
 91 92  2  0  0  0
 91 93  1  0  0  0
 93186  1  0  0  0
 93187  1  0  0  0
M  CHG  3   7   1  30   1  90   1
M  END
> <s_m_source_file>
../5ab0_ligand.sdf

> <i_m_source_file_index>
1

> <s_epik_input>
W2NIXTFbY0hdW2NIXVtjSF1bY0hdYzFbQ0gyXVtDSDJdW0NASF0oW05IMytdKVtQQEBdKD1PKShbT0hdKVtDSDJdW0NAQEhdKFtDSDJdW0NIXShbQ0gzXSlbQ0gzXSlDKD1PKVtOSF1bQ0BASF0oW0NIMl1bQ0gyXVtDSDJdW0NIMl1bTkgzK10pQyg9TylbTkhdW0NAQEhdKFtDSDJdQzI9TltDSDJdTj1bQ0hdMilDKD1PKVtOSF1bQ0BASF0oW0NIMl1DMz1OW0NIMl1OPVtDSF0zKUMoPU8pW05IXVtDQEBIXShbQ0gzXSlDKD1PKVtOSF1bQ0BASF0oW0NIMl1jNFtjSF1bY0hdW2NIXVtjSF1bY0hdNClDKD1PKVtOSF1bQ0BASF0oW0NIMl1bT0hdKUMoPU8pW05IXVtDQEBIXShbQ0gyXWM1W2NIXVtjSF1bY0hdW2NIXVtjSF01KUMoPU8pW05IXVtDQEhdKEMoPU8pW05IMl0pW0NIMl1bQ0gyXVtDSDJdW0NIMl1bTkgzK10=

> <s_epik_cmdline>
J2VwaWtfYXBwJywgJy1pbWFlJywgJ2xpZ2FuZF9wcm8ubWFlJywgJy1vbWFlJywgJ2xpZ2FuZF9wcmVwLm1hZScsICctbXMnLCAnMScsICctcGgnLCAnNycsICctcGh0JywgJzAuNScsICctbnQn

> <s_epik_pKa_notes>
Molecule size exceeds maximum supported for generating protonation states

> <s_epik_Chemistry_Notes>
This compound has an imine and may undergo hydrolysis.

$$$$
