5ab9_ligand
                    3D
 Schrodinger Suite 2020-3.
 37 39  0  0  1  0            999 V2000
   93.7580   92.0400  -41.5680 C   0  0  0  0  0  0
   91.9890   95.1010  -40.9440 N   0  0  0  0  0  0
   92.2620   92.1210  -41.6260 C   0  0  0  0  0  0
   90.7080  100.2510  -44.6660 N   0  3  0  0  0  0
   91.8830   93.2420  -42.5880 C   0  0  0  0  0  0
   91.6320   93.0080  -43.9470 C   0  0  0  0  0  0
   91.2990   94.0570  -44.8110 C   0  0  0  0  0  0
   91.2160   95.3690  -44.3570 C   0  0  0  0  0  0
   91.4620   95.6580  -43.0130 C   0  0  0  0  0  0
   91.4670   96.8260  -42.2510 C   0  0  3  0  0  0
   91.8000   96.4440  -40.9680 C   0  0  0  0  0  0
   91.7930   94.5820  -42.1680 C   0  0  0  0  0  0
   91.1910   98.2520  -42.6920 C   0  0  0  0  0  0
   92.2520   98.7030  -43.6360 C   0  0  0  0  0  0
   92.0360  100.1240  -44.0780 C   0  0  0  0  0  0
   89.6340   99.8180  -43.7800 C   0  0  0  0  0  0
   89.8580   98.4040  -43.3350 C   0  0  0  0  0  0
   94.0552   91.2362  -40.8784 H   0  0  0  0  0  0
   94.1635   92.9981  -41.2108 H   0  0  0  0  0  0
   94.1528   91.8263  -42.5722 H   0  0  0  0  0  0
   91.8565   91.1629  -41.9832 H   0  0  0  0  0  0
   91.8671   92.3347  -40.6218 H   0  0  0  0  0  0
   90.5191  101.3042  -44.9210 H   0  0  0  0  0  0
   90.6501   99.6372  -45.5770 H   0  0  0  0  0  0
   91.6973   91.9923  -44.3371 H   0  0  0  0  0  0
   91.1007   93.8416  -45.8609 H   0  0  0  0  0  0
   90.9592   96.1707  -45.0494 H   0  0  0  0  0  0
   91.9210   97.0330  -40.0469 H   0  0  0  0  0  0
   91.1879   98.8936  -41.7985 H   0  0  0  0  0  0
   93.2330   98.6393  -43.1425 H   0  0  0  0  0  0
   92.2476   98.0587  -44.5276 H   0  0  0  0  0  0
   92.7956  100.3958  -44.8257 H   0  0  0  0  0  0
   92.1187  100.7954  -43.2106 H   0  0  0  0  0  0
   89.6034  100.4704  -42.8949 H   0  0  0  0  0  0
   88.6732   99.8770  -44.3124 H   0  0  0  0  0  0
   89.7971   97.7442  -44.2130 H   0  0  0  0  0  0
   89.0710   98.1316  -42.6163 H   0  0  0  0  0  0
  1  3  1  0  0  0
  1 18  1  0  0  0
  1 19  1  0  0  0
  1 20  1  0  0  0
  2 11  2  0  0  0
  2 12  1  0  0  0
  3  5  1  0  0  0
  3 21  1  0  0  0
  3 22  1  0  0  0
  4 15  1  0  0  0
  4 16  1  0  0  0
  4 23  1  0  0  0
  4 24  1  0  0  0
  5  6  1  0  0  0
  5 12  2  0  0  0
  6  7  2  0  0  0
  6 25  1  0  0  0
  7  8  1  0  0  0
  7 26  1  0  0  0
  8  9  2  0  0  0
  8 27  1  0  0  0
  9 10  1  0  0  0
  9 12  1  0  0  0
 10 11  1  0  0  0
 10 13  1  0  0  0
 11 28  1  0  0  0
 13 14  1  0  0  0
 13 17  1  0  0  0
 13 29  1  0  0  0
 14 15  1  0  0  0
 14 30  1  0  0  0
 14 31  1  0  0  0
 15 32  1  0  0  0
 15 33  1  0  0  0
 16 17  1  0  0  0
 16 34  1  0  0  0
 16 35  1  0  0  0
 17 36  1  0  0  0
 17 37  1  0  0  0
M  CHG  1   4   1
M  END
> <s_m_source_file>
../5ab9_ligand.sdf

> <i_m_source_file_index>
1

> <s_epik_input>
W2NIXTFbY0hdW2NIXWMoW0NIMl1bQ0gzXSljKGMxMilOPVtDSF1bQ0hdMltDSF0zW0NIMl1bQ0gyXVtOSDIrXVtDSDJdW0NIMl0z

> <s_epik_cmdline>
J2VwaWtfYXBwJywgJy1pbWFlJywgJ2xpZ2FuZF9wcm8ubWFlJywgJy1vbWFlJywgJ2xpZ2FuZF9wcmVwLm1hZScsICctbXMnLCAnMScsICctcGgnLCAnNycsICctcGh0JywgJzAuNScsICctbnQn

> <r_epik_Ionization_Penalty>
  0.0257

> <r_epik_Ionization_Penalty_Charging>
  0.0006

> <r_epik_Ionization_Penalty_Neutral>
  0.0251

> <r_epik_State_Penalty>
  0.0204

> <r_epik_Charging_Adjusted_Penalty>
0.0210298060595083

> <i_epik_Tot_Q>
1

> <i_epik_Tot_abs_Q>
1

> <s_epik_Chemistry_Notes>
This compound has an imine and may undergo hydrolysis.

$$$$
