5abe_ligand
                    3D
 Schrodinger Suite 2020-3.
 46 46  0  0  1  0            999 V2000
   27.9750   51.9700  245.2940 O   0  0  0  0  0  0
   29.1830   51.7760  245.1630 C   0  0  0  0  0  0
   29.8380   51.7280  244.0040 N   0  0  0  0  0  0
   29.1590   51.8980  242.7320 C   0  0  0  0  0  0
   29.9970   51.4990  246.4020 C   0  0  0  0  0  0
   29.0810   50.5050  247.1050 C   0  0  1  0  0  0
   29.7880   49.6720  248.1210 C   0  0  2  0  0  0
   30.7070   48.7410  247.5220 O   0  0  0  0  0  0
   28.5860   49.0790  248.8550 C   0  0  2  0  0  0
   28.3420   47.7450  248.4510 O   0  0  0  0  0  0
   27.3490   49.8820  248.4960 C   0  0  1  0  0  0
   26.4300   50.1170  249.6830 C   0  0  0  0  0  0
   25.7130   48.8960  249.7950 O   0  0  0  0  0  0
   27.8890   51.0790  247.8200 N   0  3  1  0  0  0
   28.0400   52.3240  248.6410 C   0  0  0  0  0  0
   28.9240   52.4140  249.8840 C   0  0  0  0  0  0
   28.5820   53.7250  250.6210 C   0  0  0  0  0  0
   29.7930   54.3610  251.3040 C   0  0  0  0  0  0
   29.4140   55.6290  252.0480 C   0  0  0  0  0  0
   30.9238   51.5538  244.0289 H   0  0  0  0  0  0
   29.8896   51.8214  241.9133 H   0  0  0  0  0  0
   28.6776   52.8866  242.7026 H   0  0  0  0  0  0
   28.3954   51.1147  242.6165 H   0  0  0  0  0  0
   30.9727   51.0807  246.1138 H   0  0  0  0  0  0
   30.1495   52.4360  246.9576 H   0  0  0  0  0  0
   28.7259   49.8995  246.2581 H   0  0  0  0  0  0
   30.5166   50.1806  248.7694 H   0  0  0  0  0  0
   31.5903   49.1111  246.9808 H   0  0  0  0  0  0
   28.7874   49.0343  249.9355 H   0  0  0  0  0  0
   29.1085   46.9726  248.6121 H   0  0  0  0  0  0
   26.6623   49.3785  247.7996 H   0  0  0  0  0  0
   27.0336   50.3313  250.5773 H   0  0  0  0  0  0
   25.7704   50.9717  249.4725 H   0  0  0  0  0  0
   24.9585   48.7718  250.5857 H   0  0  0  0  0  0
   27.1756   51.5463  247.1253 H   0  0  0  0  0  0
   28.4450   53.1308  248.0125 H   0  0  0  0  0  0
   27.0581   52.6244  249.0355 H   0  0  0  0  0  0
   28.7283   51.5502  250.5364 H   0  0  0  0  0  0
   29.9819   52.4135  249.5825 H   0  0  0  0  0  0
   28.1821   54.4558  249.9027 H   0  0  0  0  0  0
   27.8288   53.5237  251.3970 H   0  0  0  0  0  0
   30.2220   53.6504  252.0258 H   0  0  0  0  0  0
   30.5491   54.6159  250.5468 H   0  0  0  0  0  0
   30.3088   56.0558  252.5245 H   0  0  0  0  0  0
   28.6658   55.3921  252.8187 H   0  0  0  0  0  0
   28.9928   56.3577  251.3397 H   0  0  0  0  0  0
  1  2  2  0  0  0
  2  3  1  0  0  0
  2  5  1  0  0  0
  3  4  1  0  0  0
  3 20  1  0  0  0
  4 21  1  0  0  0
  4 22  1  0  0  0
  4 23  1  0  0  0
  5  6  1  0  0  0
  5 24  1  0  0  0
  5 25  1  0  0  0
  6  7  1  0  0  0
  6 14  1  0  0  0
  6 26  1  0  0  0
  7  8  1  0  0  0
  7  9  1  0  0  0
  7 27  1  0  0  0
  8 28  1  0  0  0
  9 10  1  0  0  0
  9 11  1  0  0  0
  9 29  1  0  0  0
 10 30  1  0  0  0
 11 12  1  0  0  0
 11 14  1  0  0  0
 11 31  1  0  0  0
 12 13  1  0  0  0
 12 32  1  0  0  0
 12 33  1  0  0  0
 13 34  1  0  0  0
 14 15  1  0  0  0
 14 35  1  0  0  0
 15 16  1  0  0  0
 15 36  1  0  0  0
 15 37  1  0  0  0
 16 17  1  0  0  0
 16 38  1  0  0  0
 16 39  1  0  0  0
 17 18  1  0  0  0
 17 40  1  0  0  0
 17 41  1  0  0  0
 18 19  1  0  0  0
 18 42  1  0  0  0
 18 43  1  0  0  0
 19 44  1  0  0  0
 19 45  1  0  0  0
 19 46  1  0  0  0
M  CHG  1  14   1
M  END
> <s_m_source_file>
../5abe_ligand.sdf

> <i_m_source_file_index>
1

> <s_epik_input>
W0NIM11bTkhdQyg9TylbQ0gyXVtDQEhdMVtDQEhdKFtPSF0pW0NASF0oW09IXSlbQ0BASF0oW0NIMl1bT0hdKVtOQEgrXTFbQ0gyXVtDSDJdW0NIMl1bQ0gyXVtDSDNd

> <s_epik_cmdline>
J2VwaWtfYXBwJywgJy1pbWFlJywgJ2xpZ2FuZF9wcm8ubWFlJywgJy1vbWFlJywgJ2xpZ2FuZF9wcmVwLm1hZScsICctbXMnLCAnMScsICctcGgnLCAnNycsICctcGh0JywgJzAuNScsICctbnQn

> <r_epik_Ionization_Penalty>
  0.0725

> <r_epik_Ionization_Penalty_Charging>
  0.0725

> <r_epik_Ionization_Penalty_Neutral>
  0.0000

> <r_epik_State_Penalty>
  0.0637

> <r_epik_Charging_Adjusted_Penalty>
0.136231670188288

> <i_epik_Tot_Q>
1

> <i_epik_Tot_abs_Q>
1

$$$$
