5abf_ligand
                    3D
 Schrodinger Suite 2020-3.
 46 46  0  0  1  0            999 V2000
   27.6400   53.0050  246.0540 O   0  0  0  0  0  0
   28.7340   52.4720  245.9830 C   0  0  0  0  0  0
   29.3230   52.1630  244.8310 N   0  0  0  0  0  0
   28.6980   52.4570  243.5590 C   0  0  0  0  0  0
   29.4700   52.1270  247.2490 C   0  0  0  0  0  0
   28.5500   51.1630  247.9960 C   0  0  1  0  0  0
   29.2470   49.9360  248.5670 C   0  0  1  0  0  0
   30.6030   50.2120  248.9180 O   0  0  0  0  0  0
   28.4060   49.5770  249.7790 C   0  0  2  0  0  0
   28.0350   48.2030  249.7430 O   0  0  0  0  0  0
   27.1970   50.5070  249.6730 C   0  0  1  0  0  0
   26.3690   50.7290  250.9430 C   0  0  0  0  0  0
   26.9060   50.0150  252.0590 O   0  0  0  0  0  0
   27.7840   51.7390  249.1230 N   0  3  1  0  0  0
   28.6330   52.3850  250.1420 C   0  0  0  0  0  0
   28.1190   53.7730  250.4890 C   0  0  0  0  0  0
   28.5800   54.1320  251.8970 C   0  0  0  0  0  0
   28.9070   55.6100  252.0520 C   0  0  0  0  0  0
   27.6750   56.4090  252.4090 C   0  0  0  0  0  0
   30.3075   51.6731  244.8599 H   0  0  0  0  0  0
   29.3529   52.1197  242.7421 H   0  0  0  0  0  0
   28.5335   53.5412  243.4732 H   0  0  0  0  0  0
   27.7327   51.9334  243.4951 H   0  0  0  0  0  0
   30.4314   51.6555  246.9973 H   0  0  0  0  0  0
   29.6519   53.0439  247.8289 H   0  0  0  0  0  0
   27.8376   50.9010  247.1999 H   0  0  0  0  0  0
   29.3783   49.1109  247.8515 H   0  0  0  0  0  0
   31.3281   50.4867  248.1378 H   0  0  0  0  0  0
   28.9322   49.6375  250.7431 H   0  0  0  0  0  0
   28.8075   47.4228  249.8103 H   0  0  0  0  0  0
   26.4233   50.0882  249.0128 H   0  0  0  0  0  0
   26.3588   51.8005  251.1914 H   0  0  0  0  0  0
   25.3389   50.3819  250.7745 H   0  0  0  0  0  0
   26.4148   50.0795  253.0411 H   0  0  0  0  0  0
   27.0830   52.5313  248.8216 H   0  0  0  0  0  0
   28.6369   51.7742  251.0568 H   0  0  0  0  0  0
   29.6599   52.4776  249.7586 H   0  0  0  0  0  0
   28.5188   54.5025  249.7693 H   0  0  0  0  0  0
   27.0199   53.7787  250.4446 H   0  0  0  0  0  0
   27.7852   53.8867  252.6168 H   0  0  0  0  0  0
   29.4867   53.5599  252.1430 H   0  0  0  0  0  0
   29.6519   55.7389  252.8510 H   0  0  0  0  0  0
   29.3135   55.9968  251.1059 H   0  0  0  0  0  0
   27.9440   57.4705  252.5137 H   0  0  0  0  0  0
   27.2614   56.0401  253.3592 H   0  0  0  0  0  0
   26.9229   56.2980  251.6140 H   0  0  0  0  0  0
  1  2  2  0  0  0
  2  3  1  0  0  0
  2  5  1  0  0  0
  3  4  1  0  0  0
  3 20  1  0  0  0
  4 21  1  0  0  0
  4 22  1  0  0  0
  4 23  1  0  0  0
  5  6  1  0  0  0
  5 24  1  0  0  0
  5 25  1  0  0  0
  6  7  1  0  0  0
  6 14  1  0  0  0
  6 26  1  0  0  0
  7  8  1  0  0  0
  7  9  1  0  0  0
  7 27  1  0  0  0
  8 28  1  0  0  0
  9 10  1  0  0  0
  9 11  1  0  0  0
  9 29  1  0  0  0
 10 30  1  0  0  0
 11 12  1  0  0  0
 11 14  1  0  0  0
 11 31  1  0  0  0
 12 13  1  0  0  0
 12 32  1  0  0  0
 12 33  1  0  0  0
 13 34  1  0  0  0
 14 15  1  0  0  0
 14 35  1  0  0  0
 15 16  1  0  0  0
 15 36  1  0  0  0
 15 37  1  0  0  0
 16 17  1  0  0  0
 16 38  1  0  0  0
 16 39  1  0  0  0
 17 18  1  0  0  0
 17 40  1  0  0  0
 17 41  1  0  0  0
 18 19  1  0  0  0
 18 42  1  0  0  0
 18 43  1  0  0  0
 19 44  1  0  0  0
 19 45  1  0  0  0
 19 46  1  0  0  0
M  CHG  1  14   1
M  END
> <s_m_source_file>
../5abf_ligand.sdf

> <i_m_source_file_index>
1

> <s_epik_input>
W0NIM11bTkhdQyg9TylbQ0gyXVtDQEhdMVtDQEBIXShbT0hdKVtDQEhdKFtPSF0pW0NAQEhdKFtDSDJdW09IXSlbTkBIK10xW0NIMl1bQ0gyXVtDSDJdW0NIMl1bQ0gzXQ==

> <s_epik_cmdline>
J2VwaWtfYXBwJywgJy1pbWFlJywgJ2xpZ2FuZF9wcm8ubWFlJywgJy1vbWFlJywgJ2xpZ2FuZF9wcmVwLm1hZScsICctbXMnLCAnMScsICctcGgnLCAnNycsICctcGh0JywgJzAuNScsICctbnQn

> <r_epik_Ionization_Penalty>
  0.0725

> <r_epik_Ionization_Penalty_Charging>
  0.0725

> <r_epik_Ionization_Penalty_Neutral>
  0.0000

> <r_epik_State_Penalty>
  0.0637

> <r_epik_Charging_Adjusted_Penalty>
0.136231670188288

> <i_epik_Tot_Q>
1

> <i_epik_Tot_abs_Q>
1

$$$$
