5abg_ligand
                    3D
 Schrodinger Suite 2020-3.
 50 51  0  0  1  0            999 V2000
   27.7720   52.6430  250.4680 C   0  0  0  0  0  0
   27.8560   54.7080  251.8020 C   0  0  0  0  0  0
   27.9400   51.9610  249.1700 N   0  3  1  0  0  0
   29.3850   51.7390  248.9040 C   0  0  1  0  0  0
   29.6140   50.2310  248.8710 C   0  0  1  0  0  0
   28.4620   49.7490  249.7160 C   0  0  1  0  0  0
   27.3310   50.6100  249.1980 C   0  0  1  0  0  0
   28.2350   48.3580  249.5560 O   0  0  0  0  0  0
   29.5470   49.6710  247.5530 O   0  0  0  0  0  0
   26.0580   50.4310  250.0240 C   0  0  0  0  0  0
   26.3660   50.3260  251.4160 O   0  0  0  0  0  0
   29.8940   52.4560  247.6500 C   0  0  0  0  0  0
   28.9470   52.3670  246.4720 C   0  0  0  0  0  0
   29.5040   52.5190  245.2730 N   0  0  0  0  0  0
   28.7200   52.4940  244.0550 C   0  0  0  0  0  0
   27.7510   52.1810  246.6220 O   0  0  0  0  0  0
   28.3080   54.0680  250.4900 C   0  0  0  0  0  0
   28.8980   55.4290  252.6410 C   0  0  0  0  0  0
   28.4270   56.4040  253.5160 C   0  0  0  0  0  0
   29.3020   57.1140  254.3280 C   0  0  0  0  0  0
   30.6630   56.8440  254.2740 C   0  0  0  0  0  0
   31.1420   55.8670  253.4090 C   0  0  0  0  0  0
   30.2630   55.1570  252.5960 C   0  0  0  0  0  0
   31.5160   57.5270  255.0570 F   0  0  0  0  0  0
   26.7024   52.6936  250.7199 H   0  0  0  0  0  0
   28.3064   52.0821  251.2488 H   0  0  0  0  0  0
   27.0839   55.4636  251.5945 H   0  0  0  0  0  0
   27.4423   53.9334  252.4644 H   0  0  0  0  0  0
   27.4621   52.5985  248.4116 H   0  0  0  0  0  0
   29.9543   52.1972  249.7262 H   0  0  0  0  0  0
   30.6199   49.9073  249.1767 H   0  0  0  0  0  0
   28.6094   49.7833  250.8055 H   0  0  0  0  0  0
   26.9719   50.3709  248.1861 H   0  0  0  0  0  0
   28.9905   47.6347  249.8967 H   0  0  0  0  0  0
   30.3166   49.9230  246.8086 H   0  0  0  0  0  0
   25.3973   51.2971  249.8716 H   0  0  0  0  0  0
   25.5401   49.5143  249.7055 H   0  0  0  0  0  0
   25.5573   50.1928  252.1497 H   0  0  0  0  0  0
   30.0412   53.5232  247.8722 H   0  0  0  0  0  0
   30.8500   52.0116  247.3361 H   0  0  0  0  0  0
   30.5929   52.6670  245.2233 H   0  0  0  0  0  0
   29.3830   52.6384  243.1892 H   0  0  0  0  0  0
   27.9728   53.3008  244.0833 H   0  0  0  0  0  0
   28.2090   51.5238  243.9677 H   0  0  0  0  0  0
   29.4062   54.0476  250.4304 H   0  0  0  0  0  0
   27.9045   54.6248  249.6315 H   0  0  0  0  0  0
   27.3583   56.6128  253.5644 H   0  0  0  0  0  0
   28.9221   57.8796  255.0045 H   0  0  0  0  0  0
   32.2105   55.6559  253.3671 H   0  0  0  0  0  0
   30.6433   54.3878  251.9239 H   0  0  0  0  0  0
  1  3  1  0  0  0
  1 17  1  0  0  0
  1 25  1  0  0  0
  1 26  1  0  0  0
  2 17  1  0  0  0
  2 18  1  0  0  0
  2 27  1  0  0  0
  2 28  1  0  0  0
  3  4  1  0  0  0
  3  7  1  0  0  0
  3 29  1  0  0  0
  4  5  1  0  0  0
  4 12  1  0  0  0
  4 30  1  0  0  0
  5  6  1  0  0  0
  5  9  1  0  0  0
  5 31  1  0  0  0
  6  7  1  0  0  0
  6  8  1  0  0  0
  6 32  1  0  0  0
  7 10  1  0  0  0
  7 33  1  0  0  0
  8 34  1  0  0  0
  9 35  1  0  0  0
 10 11  1  0  0  0
 10 36  1  0  0  0
 10 37  1  0  0  0
 11 38  1  0  0  0
 12 13  1  0  0  0
 12 39  1  0  0  0
 12 40  1  0  0  0
 13 14  1  0  0  0
 13 16  2  0  0  0
 14 15  1  0  0  0
 14 41  1  0  0  0
 15 42  1  0  0  0
 15 43  1  0  0  0
 15 44  1  0  0  0
 17 45  1  0  0  0
 17 46  1  0  0  0
 18 19  2  0  0  0
 18 23  1  0  0  0
 19 20  1  0  0  0
 19 47  1  0  0  0
 20 21  2  0  0  0
 20 48  1  0  0  0
 21 22  1  0  0  0
 21 24  1  0  0  0
 22 23  2  0  0  0
 22 49  1  0  0  0
 23 50  1  0  0  0
M  CHG  1   3   1
M  END
> <s_m_source_file>
../5abg_ligand.sdf

> <i_m_source_file_index>
1

> <s_epik_input>
W09IXVtDSDJdW0NAQEhdMVtDQEBIXShbT0hdKVtDQEBIXShbT0hdKVtDQEBIXShbQ0gyXUMoPU8pW05IXVtDSDNdKVtOQEBIK10xW0NIMl1bQ0gyXVtDSDJdYzJbY0hdW2NIXWMoRilbY0hdW2NIXTI=

> <s_epik_cmdline>
J2VwaWtfYXBwJywgJy1pbWFlJywgJ2xpZ2FuZF9wcm8ubWFlJywgJy1vbWFlJywgJ2xpZ2FuZF9wcmVwLm1hZScsICctbXMnLCAnMScsICctcGgnLCAnNycsICctcGh0JywgJzAuNScsICctbnQn

> <r_epik_Ionization_Penalty>
  0.1177

> <r_epik_Ionization_Penalty_Charging>
  0.1177

> <r_epik_Ionization_Penalty_Neutral>
  0.0000

> <r_epik_State_Penalty>
  0.1073

> <r_epik_Charging_Adjusted_Penalty>
0.225016957732526

> <i_epik_Tot_Q>
1

> <i_epik_Tot_abs_Q>
1

$$$$
