5abh_ligand
                    3D
 Schrodinger Suite 2020-3.
 46 46  0  0  1  0            999 V2000
   27.5120   52.9680  249.3110 C   0  0  0  0  0  0
   27.8930   51.8380  248.4430 N   0  3  1  0  0  0
   29.3670   51.6630  248.2870 C   0  0  1  0  0  0
   29.5990   50.1810  248.2560 C   0  0  1  0  0  0
   28.4570   49.6780  249.1280 C   0  0  1  0  0  0
   27.2840   50.5140  248.6810 C   0  0  1  0  0  0
   28.5470   53.5820  250.2520 C   0  0  0  0  0  0
   27.8460   54.5770  251.1660 C   0  0  0  0  0  0
   28.3580   56.0010  251.0480 C   0  0  0  0  0  0
   28.0230   56.7940  252.3020 C   0  0  0  0  0  0
   29.9100   52.4040  247.0730 C   0  0  0  0  0  0
   28.9710   52.3830  245.8730 C   0  0  0  0  0  0
   27.7820   52.6620  246.0030 O   0  0  0  0  0  0
   29.5400   52.1700  244.6760 N   0  0  0  0  0  0
   28.8320   52.4730  243.4420 C   0  0  0  0  0  0
   26.0810   50.4140  249.6330 C   0  0  0  0  0  0
   26.4440   50.6880  250.9870 O   0  0  0  0  0  0
   28.1910   48.2960  248.9690 O   0  0  0  0  0  0
   29.5700   49.6230  246.9330 O   0  0  0  0  0  0
   27.1798   53.8123  248.6891 H   0  0  0  0  0  0
   26.6931   52.6588  249.9771 H   0  0  0  0  0  0
   27.4211   52.1978  247.5168 H   0  0  0  0  0  0
   29.9114   52.1038  249.1351 H   0  0  0  0  0  0
   30.6118   49.8771  248.5592 H   0  0  0  0  0  0
   28.6736   49.7094  250.2060 H   0  0  0  0  0  0
   26.8137   50.1988  247.7379 H   0  0  0  0  0  0
   29.0135   52.7873  250.8527 H   0  0  0  0  0  0
   29.3194   54.0968  249.6618 H   0  0  0  0  0  0
   26.7723   54.6002  250.9279 H   0  0  0  0  0  0
   27.9826   54.2716  252.2139 H   0  0  0  0  0  0
   29.4498   55.9882  250.9147 H   0  0  0  0  0  0
   27.8885   56.4888  250.1810 H   0  0  0  0  0  0
   28.4014   57.8216  252.1980 H   0  0  0  0  0  0
   28.4934   56.3166  253.1743 H   0  0  0  0  0  0
   26.9320   56.8172  252.4406 H   0  0  0  0  0  0
   30.0841   53.4582  247.3345 H   0  0  0  0  0  0
   30.8574   51.9436  246.7559 H   0  0  0  0  0  0
   30.5596   51.7589  244.6384 H   0  0  0  0  0  0
   29.4721   52.2266  242.5820 H   0  0  0  0  0  0
   28.5804   53.5436  243.4170 H   0  0  0  0  0  0
   27.9081   51.8780  243.3938 H   0  0  0  0  0  0
   25.3125   51.1405  249.3303 H   0  0  0  0  0  0
   25.6623   49.3978  249.5893 H   0  0  0  0  0  0
   25.6813   50.6526  251.7788 H   0  0  0  0  0  0
   28.9517   47.5534  249.2515 H   0  0  0  0  0  0
   30.3409   49.9042  246.2005 H   0  0  0  0  0  0
  1  2  1  0  0  0
  1  7  1  0  0  0
  1 20  1  0  0  0
  1 21  1  0  0  0
  2  3  1  0  0  0
  2  6  1  0  0  0
  2 22  1  0  0  0
  3  4  1  0  0  0
  3 11  1  0  0  0
  3 23  1  0  0  0
  4  5  1  0  0  0
  4 19  1  0  0  0
  4 24  1  0  0  0
  5  6  1  0  0  0
  5 18  1  0  0  0
  5 25  1  0  0  0
  6 16  1  0  0  0
  6 26  1  0  0  0
  7  8  1  0  0  0
  7 27  1  0  0  0
  7 28  1  0  0  0
  8  9  1  0  0  0
  8 29  1  0  0  0
  8 30  1  0  0  0
  9 10  1  0  0  0
  9 31  1  0  0  0
  9 32  1  0  0  0
 10 33  1  0  0  0
 10 34  1  0  0  0
 10 35  1  0  0  0
 11 12  1  0  0  0
 11 36  1  0  0  0
 11 37  1  0  0  0
 12 13  2  0  0  0
 12 14  1  0  0  0
 14 15  1  0  0  0
 14 38  1  0  0  0
 15 39  1  0  0  0
 15 40  1  0  0  0
 15 41  1  0  0  0
 16 17  1  0  0  0
 16 42  1  0  0  0
 16 43  1  0  0  0
 17 44  1  0  0  0
 18 45  1  0  0  0
 19 46  1  0  0  0
M  CHG  1   2   1
M  END
> <s_m_source_file>
../5abh_ligand.sdf

> <i_m_source_file_index>
1

> <s_epik_input>
W0NIM11bQ0gyXVtDSDJdW0NIMl1bQ0gyXVtOQEgrXTFbQ0BIXShbQ0gyXUMoPU8pW05IXVtDSDNdKVtDQEhdKFtPSF0pW0NASF0oW09IXSlbQ0BIXTFbQ0gyXVtPSF0=

> <s_epik_cmdline>
J2VwaWtfYXBwJywgJy1pbWFlJywgJ2xpZ2FuZF9wcm8ubWFlJywgJy1vbWFlJywgJ2xpZ2FuZF9wcmVwLm1hZScsICctbXMnLCAnMScsICctcGgnLCAnNycsICctcGh0JywgJzAuNScsICctbnQn

> <r_epik_Ionization_Penalty>
  0.0725

> <r_epik_Ionization_Penalty_Charging>
  0.0725

> <r_epik_Ionization_Penalty_Neutral>
  0.0000

> <r_epik_State_Penalty>
  0.0637

> <r_epik_Charging_Adjusted_Penalty>
0.136231670188288

> <i_epik_Tot_Q>
1

> <i_epik_Tot_abs_Q>
1

$$$$
