5acx_ligand
                    3D
 Schrodinger Suite 2020-3.
 26 27  0  0  1  0            999 V2000
  -34.5860    6.8440    7.2800 C   0  0  0  0  0  0
  -36.6240   11.4350    7.1400 C   0  0  0  0  0  0
  -36.4500   10.1580    6.6380 C   0  0  0  0  0  0
  -34.5510    9.8480    8.0730 C   0  0  0  0  0  0
  -34.7240   11.1270    8.5780 C   0  0  0  0  0  0
  -35.7610   11.9180    8.1090 C   0  0  0  0  0  0
  -34.1200    5.8100    9.4060 C   0  0  0  0  0  0
  -33.3840    4.8290    8.7690 C   0  0  0  0  0  0
  -33.2540    4.8520    7.3920 C   0  0  0  0  0  0
  -33.8450    5.8500    6.6400 C   0  0  0  0  0  0
  -34.7220    6.8080    8.6600 C   0  0  0  0  0  0
  -33.6500    5.7920    5.1370 C   0  0  0  0  0  0
  -35.9400   13.1520    8.5850 F   0  0  0  0  0  0
  -34.3800    5.0360    4.4380 O   0  5  0  0  0  0
  -32.7460    6.4740    4.5870 O   0  0  0  0  0  0
  -35.2720    7.9640    6.5190 C   0  0  0  0  0  0
  -35.4180    9.3590    7.1030 C   0  0  0  0  0  0
  -35.7250    7.7630    5.4110 O   0  0  0  0  0  0
  -37.4386   12.0597    6.7736 H   0  0  0  0  0  0
  -37.1277    9.7786    5.8732 H   0  0  0  0  0  0
  -33.7341    9.2249    8.4370 H   0  0  0  0  0  0
  -34.0467   11.5096    9.3415 H   0  0  0  0  0  0
  -34.2258    5.7977   10.4908 H   0  0  0  0  0  0
  -32.9073    4.0394    9.3499 H   0  0  0  0  0  0
  -32.6778    4.0727    6.8932 H   0  0  0  0  0  0
  -35.3104    7.5754    9.1630 H   0  0  0  0  0  0
  1 10  2  0  0  0
  1 11  1  0  0  0
  1 16  1  0  0  0
  2  3  2  0  0  0
  2  6  1  0  0  0
  2 19  1  0  0  0
  3 17  1  0  0  0
  3 20  1  0  0  0
  4  5  1  0  0  0
  4 17  2  0  0  0
  4 21  1  0  0  0
  5  6  2  0  0  0
  5 22  1  0  0  0
  6 13  1  0  0  0
  7  8  1  0  0  0
  7 11  2  0  0  0
  7 23  1  0  0  0
  8  9  2  0  0  0
  8 24  1  0  0  0
  9 10  1  0  0  0
  9 25  1  0  0  0
 10 12  1  0  0  0
 11 26  1  0  0  0
 12 14  1  0  0  0
 12 15  2  0  0  0
 16 17  1  0  0  0
 16 18  2  0  0  0
M  CHG  1  14  -1
M  END
> <s_m_source_file>
../5acx_ligand.sdf

> <i_m_source_file_index>
1

> <s_epik_input>
W2NIXTFbY0hdW2NIXVtjSF1jKEMoPU8pW09IXSljMUMoPU8pYyhbY0hdW2NIXTIpW2NIXVtjSF1jMkY=

> <s_epik_cmdline>
J2VwaWtfYXBwJywgJy1pbWFlJywgJ2xpZ2FuZF9wcm8ubWFlJywgJy1vbWFlJywgJ2xpZ2FuZF9wcmVwLm1hZScsICctbXMnLCAnMScsICctcGgnLCAnNycsICctcGh0JywgJzAuNScsICctbnQn

> <r_lp_tautomer_probability>
1

> <r_epik_Ionization_Penalty>
  0.0002

> <r_epik_Ionization_Penalty_Charging>
  0.0002

> <r_epik_Ionization_Penalty_Neutral>
  0.0000

> <r_epik_State_Penalty>
 -0.0000

> <r_epik_Charging_Adjusted_Penalty>
0.000187330832466557

> <i_epik_Tot_Q>
-1

> <i_epik_Tot_abs_Q>
1

$$$$
