5acy_ligand
                    3D
 Schrodinger Suite 2020-3.
 70 74  0  0  1  0            999 V2000
   -3.7220  -10.0140   18.1450 O   0  0  0  0  0  0
   -3.3860   -8.9830   18.7270 C   0  0  0  0  0  0
   -4.1430   -7.6960   18.5380 C   0  0  0  0  0  0
   -2.2900   -9.0140   19.5920 N   0  0  0  0  0  0
   -1.5960  -10.3250   19.7300 C   0  0  1  0  0  0
   -0.5220  -10.4870   18.6640 C   0  0  0  0  0  0
   -1.7900   -7.8980   20.3300 C   0  0  0  0  0  0
   -1.4430   -8.0980   21.6670 C   0  0  0  0  0  0
   -1.6440   -9.5080   22.1470 C   0  0  2  0  0  0
   -1.1560   -9.7270   23.4960 N   0  0  0  0  0  0
   -1.8320   -9.3730   24.6610 C   0  0  0  0  0  0
   -1.1270   -9.2670   25.8540 C   0  0  0  0  0  0
   -1.7890   -8.9360   27.0250 C   0  0  0  0  0  0
   -3.1490   -8.7070   27.0160 C   0  0  0  0  0  0
   -3.8520   -8.8170   25.8370 C   0  0  0  0  0  0
   -3.2020   -9.1420   24.6610 C   0  0  0  0  0  0
   -1.0540  -10.5090   21.1570 C   0  0  0  0  0  0
   -1.6350   -6.6310   19.7700 C   0  0  0  0  0  0
   -1.1500   -5.5800   20.5210 C   0  0  0  0  0  0
   -0.7890   -5.7600   21.8600 C   0  0  0  0  0  0
   -0.9460   -7.0380   22.4170 C   0  0  0  0  0  0
   -0.2600   -4.5990   22.6890 C   0  0  0  0  0  0
   -0.7170   -3.3020   22.4790 C   0  0  0  0  0  0
   -0.2510   -2.2480   23.2430 C   0  0  0  0  0  0
    0.7080   -2.4500   24.2250 C   0  0  0  0  0  0
    1.1590   -3.7500   24.4410 C   0  0  0  0  0  0
    0.6920   -4.8040   23.6770 C   0  0  0  0  0  0
    1.2110   -1.3020   25.0740 C   0  0  0  0  0  0
    2.4510   -0.6670   24.6000 N   0  3  0  0  0  0
    2.9860    0.2450   25.6230 C   0  0  0  0  0  0
    4.2600    0.9410   25.1870 C   0  0  0  0  0  0
    5.3210   -0.0640   24.7850 C   0  0  0  0  0  0
    4.7690   -1.0400   23.7690 C   0  0  0  0  0  0
    3.4730   -1.6640   24.2560 C   0  0  0  0  0  0
   -4.9676   -7.8565   17.8279 H   0  0  0  0  0  0
   -3.4640   -6.9258   18.1434 H   0  0  0  0  0  0
   -4.5507   -7.3651   19.5046 H   0  0  0  0  0  0
   -2.3455  -11.1095   19.5487 H   0  0  0  0  0  0
   -0.9687  -10.3448   17.6689 H   0  0  0  0  0  0
   -0.0885  -11.4958   18.7306 H   0  0  0  0  0  0
    0.2675   -9.7375   18.8221 H   0  0  0  0  0  0
   -2.7273   -9.6689   22.2495 H   0  0  0  0  0  0
   -0.1796  -10.2075   23.6564 H   0  0  0  0  0  0
   -0.0517   -9.4446   25.8683 H   0  0  0  0  0  0
   -1.2320   -8.8561   27.9585 H   0  0  0  0  0  0
   -3.6652   -8.4401   27.9382 H   0  0  0  0  0  0
   -4.9286   -8.6466   25.8310 H   0  0  0  0  0  0
   -3.7659   -9.2172   23.7312 H   0  0  0  0  0  0
   -1.2991  -11.5199   21.5148 H   0  0  0  0  0  0
    0.0379  -10.3756   21.1546 H   0  0  0  0  0  0
   -1.9003   -6.4684   18.7254 H   0  0  0  0  0  0
   -1.0468   -4.5957   20.0642 H   0  0  0  0  0  0
   -0.6727   -7.2033   23.4592 H   0  0  0  0  0  0
   -1.4548   -3.1135   21.6991 H   0  0  0  0  0  0
   -0.6422   -1.2452   23.0715 H   0  0  0  0  0  0
    1.8920   -3.9398   25.2251 H   0  0  0  0  0  0
    1.0768   -5.8084   23.8534 H   0  0  0  0  0  0
    0.4481   -0.5103   25.1093 H   0  0  0  0  0  0
    1.4138   -1.6614   26.0936 H   0  0  0  0  0  0
    2.2012   -0.0996   23.6914 H   0  0  0  0  0  0
    2.2405    1.0221   25.8474 H   0  0  0  0  0  0
    3.2113   -0.3222   26.5382 H   0  0  0  0  0  0
    4.0465    1.5906   24.3254 H   0  0  0  0  0  0
    4.6482    1.5491   26.0173 H   0  0  0  0  0  0
    6.1783    0.4649   24.3431 H   0  0  0  0  0  0
    5.6526   -0.6221   25.6730 H   0  0  0  0  0  0
    4.5716   -0.5129   22.8239 H   0  0  0  0  0  0
    5.5015   -1.8421   23.5954 H   0  0  0  0  0  0
    3.7066   -2.2707   25.1433 H   0  0  0  0  0  0
    3.0942   -2.3162   23.4553 H   0  0  0  0  0  0
  1  2  2  0  0  0
  2  3  1  0  0  0
  2  4  1  0  0  0
  3 35  1  0  0  0
  3 36  1  0  0  0
  3 37  1  0  0  0
  4  5  1  0  0  0
  4  7  1  0  0  0
  5  6  1  0  0  0
  5 17  1  0  0  0
  5 38  1  0  0  0
  6 39  1  0  0  0
  6 40  1  0  0  0
  6 41  1  0  0  0
  7  8  2  0  0  0
  7 18  1  0  0  0
  8  9  1  0  0  0
  8 21  1  0  0  0
  9 10  1  0  0  0
  9 17  1  0  0  0
  9 42  1  0  0  0
 10 11  1  0  0  0
 10 43  1  0  0  0
 11 12  2  0  0  0
 11 16  1  0  0  0
 12 13  1  0  0  0
 12 44  1  0  0  0
 13 14  2  0  0  0
 13 45  1  0  0  0
 14 15  1  0  0  0
 14 46  1  0  0  0
 15 16  2  0  0  0
 15 47  1  0  0  0
 16 48  1  0  0  0
 17 49  1  0  0  0
 17 50  1  0  0  0
 18 19  2  0  0  0
 18 51  1  0  0  0
 19 20  1  0  0  0
 19 52  1  0  0  0
 20 21  2  0  0  0
 20 22  1  0  0  0
 21 53  1  0  0  0
 22 23  2  0  0  0
 22 27  1  0  0  0
 23 24  1  0  0  0
 23 54  1  0  0  0
 24 25  2  0  0  0
 24 55  1  0  0  0
 25 26  1  0  0  0
 25 28  1  0  0  0
 26 27  2  0  0  0
 26 56  1  0  0  0
 27 57  1  0  0  0
 28 29  1  0  0  0
 28 58  1  0  0  0
 28 59  1  0  0  0
 29 30  1  0  0  0
 29 34  1  0  0  0
 29 60  1  0  0  0
 30 31  1  0  0  0
 30 61  1  0  0  0
 30 62  1  0  0  0
 31 32  1  0  0  0
 31 63  1  0  0  0
 31 64  1  0  0  0
 32 33  1  0  0  0
 32 65  1  0  0  0
 32 66  1  0  0  0
 33 34  1  0  0  0
 33 67  1  0  0  0
 33 68  1  0  0  0
 34 69  1  0  0  0
 34 70  1  0  0  0
M  CHG  1  29   1
M  END
> <s_m_source_file>
../5acy_ligand.sdf

> <i_m_source_file_index>
1

> <s_epik_input>
W2NIXTFbY0hdW2NIXVtjSF1bY0hdYzFbTkhdW0NASF0oW0NIMl1bQ0BIXShbQ0gzXSlOMkMoPU8pW0NIM10pYyhjMjMpW2NIXWMoW2NIXVtjSF0zKS1jNFtjSF1bY0hdYyhbY0hdW2NIXTQpW0NIMl1bTkgrXTVbQ0gyXVtDSDJdW0NIMl1bQ0gyXVtDSDJdNQ==

> <s_epik_cmdline>
J2VwaWtfYXBwJywgJy1pbWFlJywgJ2xpZ2FuZF9wcm8ubWFlJywgJy1vbWFlJywgJ2xpZ2FuZF9wcmVwLm1hZScsICctbXMnLCAnMScsICctcGgnLCAnNycsICctcGh0JywgJzAuNScsICctbnQn

> <r_lp_tautomer_probability>
1

> <r_epik_Ionization_Penalty>
  0.0094

> <r_epik_Ionization_Penalty_Charging>
  0.0090

> <r_epik_Ionization_Penalty_Neutral>
  0.0004

> <r_epik_State_Penalty>
 -0.0000

> <r_epik_Charging_Adjusted_Penalty>
0.0090299598650569

> <i_epik_Tot_Q>
1

> <i_epik_Tot_abs_Q>
1

$$$$
