5ael_ligand
                    3D
 Schrodinger Suite 2020-3.
 40 40  0  0  1  0            999 V2000
   25.1090   -8.3620   11.8330 C   0  0  0  0  0  0
   25.9850   -8.1810   13.0520 C   0  0  0  0  0  0
   26.1080   -6.7270   13.5010 C   0  0  0  0  0  0
   27.0400   -6.6130   14.7530 C   0  0  0  0  0  0
   26.9060   -5.1870   15.2150 C   0  0  0  0  0  0
   26.7880   -4.0100   15.5780 C   0  0  0  0  0  0
   26.6490   -2.6030   16.0320 C   0  0  0  0  0  0
   26.0300   -1.6240   15.2360 C   0  0  0  0  0  0
   25.9390   -0.3150   15.7250 C   0  0  0  0  0  0
   26.4570   -0.0040   16.9780 C   0  0  0  0  0  0
   27.0610   -0.9960   17.7260 N   0  0  0  0  0  0
   27.6000   -0.7910   19.0440 C   0  0  0  0  0  0
   28.3540    0.5330   19.2520 C   0  0  1  0  0  0
   28.9030    0.6290   20.9600 P   0  0  0  0  0  0
   28.3090   -0.4340   21.7460 O   0  0  0  0  0  0
   28.4280    1.9820   21.4640 O   0  5  0  0  0  0
   30.3700    0.4840   21.1400 O   0  5  0  0  0  0
   29.7500    0.8180   18.0840 P   0  0  0  0  0  0
   30.3270    2.1060   18.6590 O   0  5  0  0  0  0
   30.6500   -0.4250   17.9790 O   0  0  0  0  0  0
   29.1130    1.0240   16.7390 O   0  0  0  0  0  0
   27.1340   -2.2700   17.2540 C   0  0  0  0  0  0
   25.0660   -9.4286   11.5675 H   0  0  0  0  0  0
   25.5290   -7.7913   10.9916 H   0  0  0  0  0  0
   24.0947   -7.9977   12.0531 H   0  0  0  0  0  0
   25.5650   -8.7517   13.8934 H   0  0  0  0  0  0
   26.9993   -8.5453   12.8320 H   0  0  0  0  0  0
   26.5340   -6.1258   12.6842 H   0  0  0  0  0  0
   25.1125   -6.3383   13.7617 H   0  0  0  0  0  0
   26.7053   -7.3215   15.5250 H   0  0  0  0  0  0
   28.0745   -6.8487   14.4627 H   0  0  0  0  0  0
   25.6276   -1.8922   14.2480 H   0  0  0  0  0  0
   25.4583    0.4671   15.1190 H   0  0  0  0  0  0
   26.3834    1.0234   17.3640 H   0  0  0  0  0  0
   26.7827   -0.8016   19.7801 H   0  0  0  0  0  0
   28.3140   -1.5946   19.2773 H   0  0  0  0  0  0
   27.5115    1.2001   19.0171 H   0  0  0  0  0  0
   31.2210   -0.7662   18.8551 H   0  0  0  0  0  0
   26.6122   -2.8533   18.0270 H   0  0  0  0  0  0
   28.2111   -2.4899   17.2934 H   0  0  0  0  0  0
  1  2  1  0  0  0
  1 23  1  0  0  0
  1 24  1  0  0  0
  1 25  1  0  0  0
  2  3  1  0  0  0
  2 26  1  0  0  0
  2 27  1  0  0  0
  3  4  1  0  0  0
  3 28  1  0  0  0
  3 29  1  0  0  0
  4  5  1  0  0  0
  4 30  1  0  0  0
  4 31  1  0  0  0
  5  6  3  0  0  0
  6  7  1  0  0  0
  7  8  2  0  0  0
  7 22  1  0  0  0
  8  9  1  0  0  0
  8 32  1  0  0  0
  9 10  2  0  0  0
  9 33  1  0  0  0
 10 11  1  0  0  0
 10 34  1  0  0  0
 11 12  1  0  0  0
 11 22  1  0  0  0
 12 13  1  0  0  0
 12 35  1  0  0  0
 12 36  1  0  0  0
 13 14  1  0  0  0
 13 18  1  0  0  0
 13 37  1  0  0  0
 14 15  2  0  0  0
 14 16  1  0  0  0
 14 17  1  0  0  0
 18 19  1  0  0  0
 18 20  1  0  0  0
 18 21  2  0  0  0
 20 38  1  0  0  0
 22 39  1  0  0  0
 22 40  1  0  0  0
M  CHG  3  16  -1  17  -1  19  -1
M  END
> <s_m_source_file>
../5ael_ligand.sdf

> <i_m_source_file_index>
1

> <s_epik_input>
W0NIM11bQ0gyXVtDSDJdW0NIMl1DI0NDMT1bQ0hdW0NIXT1bQ0hdTihbQ0gyXTEpW0NIMl1bQ0hdKFAoPU8pKFtPSF0pW09IXSlQKD1PKShbT0hdKVtPSF0=

> <s_epik_cmdline>
J2VwaWtfYXBwJywgJy1pbWFlJywgJ2xpZ2FuZF9wcm8ubWFlJywgJy1vbWFlJywgJ2xpZ2FuZF9wcmVwLm1hZScsICctbXMnLCAnMScsICctcGgnLCAnNycsICctcGh0JywgJzAuNScsICctbnQn

> <r_epik_Ionization_Penalty>
  0.2239

> <r_epik_Ionization_Penalty_Charging>
  0.2238

> <r_epik_Ionization_Penalty_Neutral>
  0.0001

> <r_epik_State_Penalty>
  0.2142

> <r_epik_Charging_Adjusted_Penalty>
0.438043706802346

> <i_epik_Tot_Q>
-3

> <i_epik_Tot_abs_Q>
3

$$$$
