5aen_ligand
                    3D
 Schrodinger Suite 2020-3.
 39 40  0  0  1  0            999 V2000
    5.4580   -2.8940   -0.6780 C   0  0  0  0  0  0
    4.9810   -1.8670   -1.5540 N   0  3  0  0  0  0
    7.3480   -0.6490   -1.6890 O   0  0  0  0  0  0
   13.9420   -2.3650    1.8730 C   0  0  0  0  0  0
   12.4180    0.6240    0.2890 O   0  0  0  0  0  0
   14.3230   -1.8260    3.0900 C   0  0  0  0  0  0
   14.0600   -0.4880    3.3720 C   0  0  0  0  0  0
   13.4160    0.3090    2.4380 C   0  0  0  0  0  0
   13.0290   -0.2230    1.2250 C   0  0  0  0  0  0
   13.2880   -1.5590    0.9300 C   0  0  0  0  0  0
   11.1390    0.2610   -0.2190 C   0  0  0  0  0  0
   10.0270    0.4230    0.5800 C   0  0  0  0  0  0
    8.7960    0.1280    0.0760 C   0  0  0  0  0  0
    8.6690   -0.3520   -1.2260 C   0  0  0  0  0  0
    9.7830   -0.5030   -2.0340 C   0  0  0  0  0  0
   11.0190   -0.1870   -1.5310 C   0  0  0  0  0  0
    7.1940   -1.6870   -2.6420 C   0  0  0  0  0  0
    5.6980   -1.8650   -2.8110 C   0  0  0  0  0  0
    3.5830   -2.1430   -1.8110 C   0  0  0  0  0  0
    6.5215   -2.7218   -0.4560 H   0  0  0  0  0  0
    5.3387   -3.8741   -1.1629 H   0  0  0  0  0  0
    4.8803   -2.8752    0.2579 H   0  0  0  0  0  0
    5.1344   -0.8890   -1.0744 H   0  0  0  0  0  0
   14.1495   -3.4113    1.6488 H   0  0  0  0  0  0
   14.8289   -2.4491    3.8275 H   0  0  0  0  0  0
   14.3615   -0.0657    4.3305 H   0  0  0  0  0  0
   13.2152    1.3567    2.6621 H   0  0  0  0  0  0
   12.9837   -1.9765   -0.0298 H   0  0  0  0  0  0
   10.1316    0.7831    1.6035 H   0  0  0  0  0  0
    7.9083    0.2678    0.6928 H   0  0  0  0  0  0
    9.6791   -0.8680   -3.0558 H   0  0  0  0  0  0
   11.9054   -0.2865   -2.1575 H   0  0  0  0  0  0
    7.6722   -1.3907   -3.5873 H   0  0  0  0  0  0
    7.6671   -2.6052   -2.2638 H   0  0  0  0  0  0
    5.5327   -2.8213   -3.3289 H   0  0  0  0  0  0
    5.3332   -1.0395   -3.4399 H   0  0  0  0  0  0
    3.0292   -2.1466   -0.8606 H   0  0  0  0  0  0
    3.4863   -3.1258   -2.2954 H   0  0  0  0  0  0
    3.1715   -1.3662   -2.4722 H   0  0  0  0  0  0
  1  2  1  0  0  0
  1 20  1  0  0  0
  1 21  1  0  0  0
  1 22  1  0  0  0
  2 18  1  0  0  0
  2 19  1  0  0  0
  2 23  1  0  0  0
  3 14  1  0  0  0
  3 17  1  0  0  0
  4  6  2  0  0  0
  4 10  1  0  0  0
  4 24  1  0  0  0
  5  9  1  0  0  0
  5 11  1  0  0  0
  6  7  1  0  0  0
  6 25  1  0  0  0
  7  8  2  0  0  0
  7 26  1  0  0  0
  8  9  1  0  0  0
  8 27  1  0  0  0
  9 10  2  0  0  0
 10 28  1  0  0  0
 11 12  2  0  0  0
 11 16  1  0  0  0
 12 13  1  0  0  0
 12 29  1  0  0  0
 13 14  2  0  0  0
 13 30  1  0  0  0
 14 15  1  0  0  0
 15 16  2  0  0  0
 15 31  1  0  0  0
 16 32  1  0  0  0
 17 18  1  0  0  0
 17 33  1  0  0  0
 17 34  1  0  0  0
 18 35  1  0  0  0
 18 36  1  0  0  0
 19 37  1  0  0  0
 19 38  1  0  0  0
 19 39  1  0  0  0
M  CHG  1   2   1
M  END
> <s_m_source_file>
../5aen_ligand.sdf

> <i_m_source_file_index>
1

> <s_epik_input>
W0NIM11bTkgrXShbQ0gzXSlbQ0gyXVtDSDJdT2MoW2NIXVtjSF0xKVtjSF1bY0hdYzFPYzJbY0hdW2NIXVtjSF1bY0hdW2NIXTI=

> <s_epik_cmdline>
J2VwaWtfYXBwJywgJy1pbWFlJywgJ2xpZ2FuZF9wcm8ubWFlJywgJy1vbWFlJywgJ2xpZ2FuZF9wcmVwLm1hZScsICctbXMnLCAnMScsICctcGgnLCAnNycsICctcGh0JywgJzAuNScsICctbnQn

> <r_lp_tautomer_probability>
1

> <r_epik_Ionization_Penalty>
  0.0248

> <r_epik_Ionization_Penalty_Charging>
  0.0248

> <r_epik_Ionization_Penalty_Neutral>
  0.0000

> <r_epik_State_Penalty>
  0.0202

> <r_epik_Charging_Adjusted_Penalty>
0.0449633694247609

> <i_epik_Tot_Q>
1

> <i_epik_Tot_abs_Q>
1

$$$$
