5aer_ligand
                    3D
 Schrodinger Suite 2020-3.
254256  0  0  1  0            999 V2000
    0.2180   28.6160  -34.8450 N   0  3  0  0  0  0
   -0.1090   30.0670  -34.8230 C   0  0  2  0  0  0
   -0.6120   30.4760  -33.4400 C   0  0  0  0  0  0
   -1.5750   29.9090  -32.9300 O   0  0  0  0  0  0
   -1.1550   30.3830  -35.8980 C   0  0  0  0  0  0
   -1.6230   31.8210  -35.8460 C   0  0  0  0  0  0
   -2.2830   32.2280  -34.9010 O   0  0  0  0  0  0
   -1.2890   32.5960  -36.8690 N   0  0  0  0  0  0
    0.0380   31.4600  -32.8310 N   0  0  0  0  0  0
   -0.2800   31.8060  -31.4540 C   0  0  2  0  0  0
   -1.6860   32.4120  -31.3020 C   0  0  0  0  0  0
   -2.3220   32.2340  -30.2640 O   0  0  0  0  0  0
    0.7950   32.7260  -30.8170 C   0  0  2  0  0  0
    0.6770   32.6900  -29.2870 C   0  0  0  0  0  0
    0.6790   34.1520  -31.3310 C   0  0  0  0  0  0
    1.6970   33.5360  -28.5470 C   0  0  0  0  0  0
   -2.1800   33.1100  -32.3200 N   0  0  0  0  0  0
   -3.5210   33.7050  -32.2280 C   0  0  2  0  0  0
   -4.6150   32.6440  -32.3710 C   0  0  0  0  0  0
   -5.6620   32.7350  -31.7230 O   0  0  0  0  0  0
   -3.7140   34.8310  -33.2500 C   0  0  0  0  0  0
   -2.8870   36.0810  -32.9540 C   0  0  0  0  0  0
   -3.4770   36.9600  -31.8590 C   0  0  0  0  0  0
   -4.7150   37.0140  -31.7220 O   0  0  0  0  0  0
   -2.7020   37.6420  -31.1580 O   0  0  0  0  0  0
   -4.3730   31.6370  -33.2050 N   0  0  0  0  0  0
   -5.2680   30.4820  -33.2670 C   0  0  2  0  0  0
   -5.2680   29.7370  -31.9330 C   0  0  0  0  0  0
   -6.3220   29.4350  -31.3830 O   0  0  0  0  0  0
   -4.8600   29.5250  -34.3870 C   0  0  0  0  0  0
   -5.4840   28.1600  -34.2710 C   0  0  0  0  0  0
   -6.7680   27.9250  -34.7430 C   0  0  0  0  0  0
   -4.8010   27.1210  -33.6590 C   0  0  0  0  0  0
   -7.3470   26.6750  -34.6270 C   0  0  0  0  0  0
   -5.3710   25.8650  -33.5520 C   0  0  0  0  0  0
   -6.6470   25.6430  -34.0350 C   0  0  0  0  0  0
   -4.0760   29.4250  -31.4320 N   0  0  0  0  0  0
   -3.9220   28.6960  -30.1620 C   0  0  2  0  0  0
   -4.5220   29.4640  -28.9990 C   0  0  0  0  0  0
   -5.2160   28.8990  -28.1580 O   0  0  0  0  0  0
   -2.4470   28.4290  -29.8830 C   0  0  0  0  0  0
   -1.8320   27.4110  -30.8240 C   0  0  0  0  0  0
   -0.3530   27.2100  -30.5440 C   0  0  0  0  0  0
    0.2650   26.4180  -31.5960 N   0  0  0  0  0  0
    1.3550   25.6760  -31.4460 C   0  0  0  0  0  0
    1.9690   25.5980  -30.2760 N   0  0  0  0  0  0
    1.8210   24.9900  -32.4730 N   0  0  0  0  0  0
   -4.2740   30.7660  -28.9720 N   0  0  0  0  0  0
   -4.8640   31.6240  -27.9630 C   0  0  2  0  0  0
   -6.4020   31.6130  -28.0490 C   0  0  0  0  0  0
   -7.0920   31.5610  -27.0240 O   0  0  0  0  0  0
   -4.3130   33.0390  -28.1190 C   0  0  0  0  0  0
   -4.7050   33.9980  -27.0190 C   0  0  0  0  0  0
   -3.7220   35.1590  -26.9300 C   0  0  0  0  0  0
   -3.5850   35.9010  -28.2550 C   0  0  0  0  0  0
   -3.0200   37.2730  -28.0760 N   0  3  0  0  0  0
   -6.9380   31.6290  -29.2670 N   0  0  0  0  0  0
   -8.3870   31.6910  -29.4500 C   0  0  2  0  0  0
   -9.0670   30.4690  -28.8420 C   0  0  0  0  0  0
  -10.0800   30.5970  -28.1590 O   0  0  0  0  0  0
   -8.7580   31.8240  -30.9190 C   0  0  0  0  0  0
   -8.5230   29.2820  -29.0620 N   0  0  0  0  0  0
   -9.2210   28.1190  -28.5550 C   0  0  2  0  0  0
   -8.9790   27.8960  -27.0600 C   0  0  0  0  0  0
   -9.8720   27.4360  -26.3610 O   0  0  0  0  0  0
   -8.9860   26.8710  -29.4260 C   0  0  0  0  0  0
   -7.7940   26.0430  -29.0450 C   0  0  0  0  0  0
   -7.8630   25.1540  -27.9820 C   0  0  0  0  0  0
   -6.6890   25.9910  -29.8740 C   0  0  0  0  0  0
   -6.7940   24.3280  -27.6730 C   0  0  0  0  0  0
   -5.6190   25.1590  -29.5780 C   0  0  0  0  0  0
   -5.6670   24.3300  -28.4740 C   0  0  0  0  0  0
   -7.8150   28.2910  -26.5550 N   0  0  0  0  0  0
   -7.5710   28.2370  -25.1160 C   0  0  2  0  0  0
   -8.5060   29.1960  -24.3630 C   0  0  0  0  0  0
   -8.9610   28.8860  -23.2640 O   0  0  0  0  0  0
   -6.1070   28.5530  -24.7900 C   0  0  0  0  0  0
   -5.0880   27.4660  -25.1230 C   0  0  0  0  0  0
   -3.6790   27.9360  -24.7980 C   0  0  0  0  0  0
   -5.3930   26.1770  -24.3870 C   0  0  0  0  0  0
   -8.8130   30.3370  -24.9790 N   0  0  0  0  0  0
   -9.7280   31.3100  -24.4010 C   0  0  2  0  0  0
  -11.1210   30.7290  -24.2440 C   0  0  0  0  0  0
  -11.7690   30.9380  -23.2160 O   0  0  0  0  0  0
   -9.7870   32.5780  -25.2500 C   0  0  0  0  0  0
   -8.6860   33.5590  -24.9040 C   0  0  0  0  0  0
   -8.7070   34.7850  -25.8000 C   0  0  0  0  0  0
   -9.5730   35.8910  -25.2270 C   0  0  0  0  0  0
   -9.4760   37.1140  -26.0730 N   0  3  0  0  0  0
  -11.5820   30.0160  -25.2680 N   0  0  0  0  0  0
  -12.8610   29.3260  -25.1930 C   0  0  2  0  0  0
  -12.8780   28.3550  -24.0060 C   0  0  0  0  0  0
  -13.8740   28.2480  -23.2990 O   0  0  0  0  0  0
  -13.1770   28.5810  -26.5040 C   0  0  2  0  0  0
  -13.5580   29.5890  -27.5930 C   0  0  0  0  0  0
  -14.2880   27.5600  -26.2810 C   0  0  0  0  0  0
  -13.8250   28.9740  -28.9500 C   0  0  0  0  0  0
  -11.7610   27.6830  -23.7560 N   0  0  0  0  0  0
  -11.7010   26.7240  -22.6610 C   0  0  2  0  0  0
  -11.5440   27.3890  -21.2950 C   0  0  0  0  0  0
  -12.1060   26.9060  -20.3120 O   0  0  0  0  0  0
  -10.5360   25.7470  -22.8790 C   0  0  0  0  0  0
  -10.5920   24.8980  -24.1530 C   0  0  0  0  0  0
   -9.3300   24.0630  -24.2860 C   0  0  0  0  0  0
  -11.8190   23.9930  -24.1630 C   0  0  0  0  0  0
  -10.7590   28.4690  -21.2230 N   0  0  0  0  0  0
  -10.2450   28.9710  -19.9290 C   0  0  2  0  0  0
  -10.4650   30.4310  -19.6260 C   0  0  0  0  0  0
  -10.1060   30.8840  -18.5410 O   0  0  0  0  0  0
   -8.7340   28.7430  -19.8400 C   0  0  0  0  0  0
   -8.3410   27.3130  -19.9890 C   0  0  0  0  0  0
   -8.6910   26.3510  -19.0700 N   0  0  0  0  0  0
   -7.6590   26.6730  -20.9660 C   0  0  0  0  0  0
   -8.2420   25.1760  -19.4750 C   0  0  0  0  0  0
   -7.6070   25.3450  -20.6200 N   0  0  0  0  0  0
  -10.9690   31.1920  -20.5910 N   0  0  0  0  0  0
  -11.0580   32.6370  -20.4140 C   0  0  2  0  0  0
  -12.4860   33.1180  -20.5730 C   0  0  0  0  0  0
  -12.7450   33.9570  -21.4260 O   0  0  0  0  0  0
  -10.1380   33.3570  -21.4090 C   0  0  0  0  0  0
  -10.0310   34.7310  -21.0910 O   0  0  0  0  0  0
  -13.3890   32.7050  -19.8430 O   0  0  0  0  0  0
    0.9687   28.3976  -34.0712 H   0  0  0  0  0  0
    0.6200   28.3457  -35.8326 H   0  0  0  0  0  0
   -0.6929   28.0318  -34.6474 H   0  0  0  0  0  0
    0.8181   30.6178  -35.0400 H   0  0  0  0  0  0
   -0.7234   30.2031  -36.8937 H   0  0  0  0  0  0
   -2.0331   29.7358  -35.7567 H   0  0  0  0  0  0
   -0.6935   32.1861  -37.6981 H   0  0  0  0  0  0
   -1.6075   33.6487  -36.8885 H   0  0  0  0  0  0
    0.8195   32.0146  -33.3710 H   0  0  0  0  0  0
   -0.2692   30.8215  -30.9634 H   0  0  0  0  0  0
    1.7939   32.3674  -31.1062 H   0  0  0  0  0  0
   -0.3154   33.0575  -28.9871 H   0  0  0  0  0  0
    0.8076   31.6566  -28.9334 H   0  0  0  0  0  0
    0.7661   34.1547  -32.4275 H   0  0  0  0  0  0
    1.4835   34.7645  -30.8977 H   0  0  0  0  0  0
   -0.2965   34.5686  -31.0396 H   0  0  0  0  0  0
    1.5318   33.4451  -27.4633 H   0  0  0  0  0  0
    1.5877   34.5885  -28.8475 H   0  0  0  0  0  0
    2.7107   33.1875  -28.7939 H   0  0  0  0  0  0
   -1.5814   33.2415  -33.2335 H   0  0  0  0  0  0
   -3.5645   34.1320  -31.2152 H   0  0  0  0  0  0
   -3.4205   34.4743  -34.2483 H   0  0  0  0  0  0
   -4.7710   35.1350  -33.2654 H   0  0  0  0  0  0
   -1.8787   35.7850  -32.6287 H   0  0  0  0  0  0
   -2.8132   36.6957  -33.8632 H   0  0  0  0  0  0
   -3.1033   38.2849  -30.3607 H   0  0  0  0  0  0
   -3.4857   31.6807  -33.8537 H   0  0  0  0  0  0
   -6.2634   30.8999  -33.4779 H   0  0  0  0  0  0
   -5.1656   29.9443  -35.3570 H   0  0  0  0  0  0
   -3.7685   29.3892  -34.3738 H   0  0  0  0  0  0
   -7.3265   28.7358  -35.2107 H   0  0  0  0  0  0
   -3.8029   27.2955  -33.2572 H   0  0  0  0  0  0
   -8.3558   26.5044  -35.0028 H   0  0  0  0  0  0
   -4.8144   25.0512  -33.0872 H   0  0  0  0  0  0
   -7.0995   24.6551  -33.9486 H   0  0  0  0  0  0
   -3.1863   29.7313  -32.0017 H   0  0  0  0  0  0
   -4.4743   27.7539  -30.2937 H   0  0  0  0  0  0
   -1.8784   29.3645  -29.9903 H   0  0  0  0  0  0
   -2.3312   28.0450  -28.8587 H   0  0  0  0  0  0
   -2.3422   26.4441  -30.7023 H   0  0  0  0  0  0
   -1.9442   27.7566  -31.8622 H   0  0  0  0  0  0
    0.1471   28.1885  -30.4946 H   0  0  0  0  0  0
   -0.2293   26.6862  -29.5847 H   0  0  0  0  0  0
   -0.1730   26.4063  -32.6050 H   0  0  0  0  0  0
    1.5869   26.1666  -29.4154 H   0  0  0  0  0  0
    2.8614   24.9646  -30.1643 H   0  0  0  0  0  0
    1.3164   25.0495  -33.4486 H   0  0  0  0  0  0
   -3.6062   31.1928  -29.7348 H   0  0  0  0  0  0
   -4.5568   31.2015  -26.9950 H   0  0  0  0  0  0
   -3.2136   33.0050  -28.1322 H   0  0  0  0  0  0
   -4.6778   33.4727  -29.0618 H   0  0  0  0  0  0
   -5.7081   34.4003  -27.2236 H   0  0  0  0  0  0
   -4.7122   33.4675  -26.0554 H   0  0  0  0  0  0
   -4.0691   35.8760  -26.1714 H   0  0  0  0  0  0
   -2.7294   34.7782  -26.6476 H   0  0  0  0  0  0
   -2.9148   35.3392  -28.9222 H   0  0  0  0  0  0
   -4.5746   35.9971  -28.7255 H   0  0  0  0  0  0
   -2.9402   37.7673  -29.0554 H   0  0  0  0  0  0
   -2.0221   37.2018  -27.6188 H   0  0  0  0  0  0
   -3.6819   37.8597  -27.4220 H   0  0  0  0  0  0
   -6.2739   31.5948  -30.1433 H   0  0  0  0  0  0
   -8.7011   32.5993  -28.9149 H   0  0  0  0  0  0
   -8.2610   32.7085  -31.3440 H   0  0  0  0  0  0
   -9.8483   31.9353  -31.0132 H   0  0  0  0  0  0
   -8.4330   30.9244  -31.4621 H   0  0  0  0  0  0
   -7.5758   29.1603  -29.6078 H   0  0  0  0  0  0
  -10.2801   28.3966  -28.6605 H   0  0  0  0  0  0
   -9.8617   26.2085  -29.3613 H   0  0  0  0  0  0
   -8.8342   27.1769  -30.4716 H   0  0  0  0  0  0
   -8.7712   25.1046  -27.3812 H   0  0  0  0  0  0
   -6.6580   26.6106  -30.7702 H   0  0  0  0  0  0
   -6.8416   23.6776  -26.7996 H   0  0  0  0  0  0
   -4.7373   25.1594  -30.2188 H   0  0  0  0  0  0
   -4.8230   23.6825  -28.2362 H   0  0  0  0  0  0
   -7.0313   28.6613  -27.2322 H   0  0  0  0  0  0
   -7.7940   27.1973  -24.8344 H   0  0  0  0  0  0
   -5.7908   29.4449  -25.3508 H   0  0  0  0  0  0
   -6.0042   28.7426  -23.7113 H   0  0  0  0  0  0
   -5.1537   27.2587  -26.2013 H   0  0  0  0  0  0
   -3.4708   28.8714  -25.3381 H   0  0  0  0  0  0
   -2.9557   27.1663  -25.1053 H   0  0  0  0  0  0
   -3.5912   28.1103  -23.7155 H   0  0  0  0  0  0
   -6.4141   25.8484  -24.6307 H   0  0  0  0  0  0
   -5.3109   26.3454  -23.3031 H   0  0  0  0  0  0
   -4.6754   25.4015  -24.6930 H   0  0  0  0  0  0
   -8.3487   30.5319  -25.9570 H   0  0  0  0  0  0
   -9.3085   31.5334  -23.4090 H   0  0  0  0  0  0
   -9.6830   32.3130  -26.3125 H   0  0  0  0  0  0
  -10.7519   33.0816  -25.0904 H   0  0  0  0  0  0
   -8.8074   33.8944  -23.8634 H   0  0  0  0  0  0
   -7.7082   33.0685  -25.0194 H   0  0  0  0  0  0
   -7.6841   35.1732  -25.9142 H   0  0  0  0  0  0
   -9.1075   34.5109  -26.7871 H   0  0  0  0  0  0
  -10.6208   35.5576  -25.1963 H   0  0  0  0  0  0
   -9.2346   36.1311  -24.2082 H   0  0  0  0  0  0
  -10.1083   37.9064  -25.6459 H   0  0  0  0  0  0
   -9.8172   36.8824  -27.0928 H   0  0  0  0  0  0
   -8.4310   37.4559  -26.1047 H   0  0  0  0  0  0
  -10.9764   29.9537  -26.1841 H   0  0  0  0  0  0
  -13.5992   30.1266  -25.0377 H   0  0  0  0  0  0
  -12.2879   28.0276  -26.8404 H   0  0  0  0  0  0
  -14.4742   30.1205  -27.2963 H   0  0  0  0  0  0
  -12.7404   30.3131  -27.7247 H   0  0  0  0  0  0
  -13.9838   26.8528  -25.4953 H   0  0  0  0  0  0
  -14.4748   27.0113  -27.2159 H   0  0  0  0  0  0
  -15.2066   28.0796  -25.9710 H   0  0  0  0  0  0
  -14.0898   29.7661  -29.6658 H   0  0  0  0  0  0
  -14.6565   28.2582  -28.8710 H   0  0  0  0  0  0
  -12.9227   28.4507  -29.2993 H   0  0  0  0  0  0
  -10.8752   27.8559  -24.3849 H   0  0  0  0  0  0
  -12.6792   26.2225  -22.7021 H   0  0  0  0  0  0
   -9.5915   26.3084  -22.9308 H   0  0  0  0  0  0
  -10.4936   25.0344  -22.0421 H   0  0  0  0  0  0
  -10.6614   25.5774  -25.0154 H   0  0  0  0  0  0
   -8.4506   24.7238  -24.2778 H   0  0  0  0  0  0
   -9.3590   23.5029  -25.2323 H   0  0  0  0  0  0
   -9.2666   23.3578  -23.4442 H   0  0  0  0  0  0
  -12.7274   24.6058  -24.0663 H   0  0  0  0  0  0
  -11.7612   23.2876  -23.3209 H   0  0  0  0  0  0
  -11.8536   23.4327  -25.1090 H   0  0  0  0  0  0
  -10.4969   28.9872  -22.1572 H   0  0  0  0  0  0
  -10.8570   28.3960  -19.2185 H   0  0  0  0  0  0
   -8.2302   29.3087  -20.6376 H   0  0  0  0  0  0
   -8.3685   29.0855  -18.8607 H   0  0  0  0  0  0
   -7.1883   27.0172  -21.8987 H   0  0  0  0  0  0
   -8.3736   24.2285  -18.9526 H   0  0  0  0  0  0
  -11.3197   30.7297  -21.5255 H   0  0  0  0  0  0
  -10.7326   32.8265  -19.3804 H   0  0  0  0  0  0
   -9.1353   32.9059  -21.3738 H   0  0  0  0  0  0
  -10.5485   33.2593  -22.4248 H   0  0  0  0  0  0
   -9.4058   35.3916  -21.7096 H   0  0  0  0  0  0
  -14.4174   33.0706  -19.9797 H   0  0  0  0  0  0
  1  2  1  0  0  0
  1123  1  0  0  0
  1124  1  0  0  0
  1125  1  0  0  0
  2  3  1  0  0  0
  2  5  1  0  0  0
  2126  1  0  0  0
  3  4  2  0  0  0
  3  9  1  0  0  0
  5  6  1  0  0  0
  5127  1  0  0  0
  5128  1  0  0  0
  6  7  2  0  0  0
  6  8  1  0  0  0
  8129  1  0  0  0
  8130  1  0  0  0
  9 10  1  0  0  0
  9131  1  0  0  0
 10 11  1  0  0  0
 10 13  1  0  0  0
 10132  1  0  0  0
 11 12  2  0  0  0
 11 17  1  0  0  0
 13 14  1  0  0  0
 13 15  1  0  0  0
 13133  1  0  0  0
 14 16  1  0  0  0
 14134  1  0  0  0
 14135  1  0  0  0
 15136  1  0  0  0
 15137  1  0  0  0
 15138  1  0  0  0
 16139  1  0  0  0
 16140  1  0  0  0
 16141  1  0  0  0
 17 18  1  0  0  0
 17142  1  0  0  0
 18 19  1  0  0  0
 18 21  1  0  0  0
 18143  1  0  0  0
 19 20  2  0  0  0
 19 26  1  0  0  0
 21 22  1  0  0  0
 21144  1  0  0  0
 21145  1  0  0  0
 22 23  1  0  0  0
 22146  1  0  0  0
 22147  1  0  0  0
 23 24  2  0  0  0
 23 25  1  0  0  0
 25148  1  0  0  0
 26 27  1  0  0  0
 26149  1  0  0  0
 27 28  1  0  0  0
 27 30  1  0  0  0
 27150  1  0  0  0
 28 29  2  0  0  0
 28 37  1  0  0  0
 30 31  1  0  0  0
 30151  1  0  0  0
 30152  1  0  0  0
 31 32  2  0  0  0
 31 33  1  0  0  0
 32 34  1  0  0  0
 32153  1  0  0  0
 33 35  2  0  0  0
 33154  1  0  0  0
 34 36  2  0  0  0
 34155  1  0  0  0
 35 36  1  0  0  0
 35156  1  0  0  0
 36157  1  0  0  0
 37 38  1  0  0  0
 37158  1  0  0  0
 38 39  1  0  0  0
 38 41  1  0  0  0
 38159  1  0  0  0
 39 40  2  0  0  0
 39 48  1  0  0  0
 41 42  1  0  0  0
 41160  1  0  0  0
 41161  1  0  0  0
 42 43  1  0  0  0
 42162  1  0  0  0
 42163  1  0  0  0
 43 44  1  0  0  0
 43164  1  0  0  0
 43165  1  0  0  0
 44 45  1  0  0  0
 44166  1  0  0  0
 45 46  1  0  0  0
 45 47  2  0  0  0
 46167  1  0  0  0
 46168  1  0  0  0
 47169  1  0  0  0
 48 49  1  0  0  0
 48170  1  0  0  0
 49 50  1  0  0  0
 49 52  1  0  0  0
 49171  1  0  0  0
 50 51  2  0  0  0
 50 57  1  0  0  0
 52 53  1  0  0  0
 52172  1  0  0  0
 52173  1  0  0  0
 53 54  1  0  0  0
 53174  1  0  0  0
 53175  1  0  0  0
 54 55  1  0  0  0
 54176  1  0  0  0
 54177  1  0  0  0
 55 56  1  0  0  0
 55178  1  0  0  0
 55179  1  0  0  0
 56180  1  0  0  0
 56181  1  0  0  0
 56182  1  0  0  0
 57 58  1  0  0  0
 57183  1  0  0  0
 58 59  1  0  0  0
 58 61  1  0  0  0
 58184  1  0  0  0
 59 60  2  0  0  0
 59 62  1  0  0  0
 61185  1  0  0  0
 61186  1  0  0  0
 61187  1  0  0  0
 62 63  1  0  0  0
 62188  1  0  0  0
 63 64  1  0  0  0
 63 66  1  0  0  0
 63189  1  0  0  0
 64 65  2  0  0  0
 64 73  1  0  0  0
 66 67  1  0  0  0
 66190  1  0  0  0
 66191  1  0  0  0
 67 68  2  0  0  0
 67 69  1  0  0  0
 68 70  1  0  0  0
 68192  1  0  0  0
 69 71  2  0  0  0
 69193  1  0  0  0
 70 72  2  0  0  0
 70194  1  0  0  0
 71 72  1  0  0  0
 71195  1  0  0  0
 72196  1  0  0  0
 73 74  1  0  0  0
 73197  1  0  0  0
 74 75  1  0  0  0
 74 77  1  0  0  0
 74198  1  0  0  0
 75 76  2  0  0  0
 75 81  1  0  0  0
 77 78  1  0  0  0
 77199  1  0  0  0
 77200  1  0  0  0
 78 79  1  0  0  0
 78 80  1  0  0  0
 78201  1  0  0  0
 79202  1  0  0  0
 79203  1  0  0  0
 79204  1  0  0  0
 80205  1  0  0  0
 80206  1  0  0  0
 80207  1  0  0  0
 81 82  1  0  0  0
 81208  1  0  0  0
 82 83  1  0  0  0
 82 85  1  0  0  0
 82209  1  0  0  0
 83 84  2  0  0  0
 83 90  1  0  0  0
 85 86  1  0  0  0
 85210  1  0  0  0
 85211  1  0  0  0
 86 87  1  0  0  0
 86212  1  0  0  0
 86213  1  0  0  0
 87 88  1  0  0  0
 87214  1  0  0  0
 87215  1  0  0  0
 88 89  1  0  0  0
 88216  1  0  0  0
 88217  1  0  0  0
 89218  1  0  0  0
 89219  1  0  0  0
 89220  1  0  0  0
 90 91  1  0  0  0
 90221  1  0  0  0
 91 92  1  0  0  0
 91 94  1  0  0  0
 91222  1  0  0  0
 92 93  2  0  0  0
 92 98  1  0  0  0
 94 95  1  0  0  0
 94 96  1  0  0  0
 94223  1  0  0  0
 95 97  1  0  0  0
 95224  1  0  0  0
 95225  1  0  0  0
 96226  1  0  0  0
 96227  1  0  0  0
 96228  1  0  0  0
 97229  1  0  0  0
 97230  1  0  0  0
 97231  1  0  0  0
 98 99  1  0  0  0
 98232  1  0  0  0
 99100  1  0  0  0
 99102  1  0  0  0
 99233  1  0  0  0
100101  2  0  0  0
100106  1  0  0  0
102103  1  0  0  0
102234  1  0  0  0
102235  1  0  0  0
103104  1  0  0  0
103105  1  0  0  0
103236  1  0  0  0
104237  1  0  0  0
104238  1  0  0  0
104239  1  0  0  0
105240  1  0  0  0
105241  1  0  0  0
105242  1  0  0  0
106107  1  0  0  0
106243  1  0  0  0
107108  1  0  0  0
107110  1  0  0  0
107244  1  0  0  0
108109  2  0  0  0
108116  1  0  0  0
110111  1  0  0  0
110245  1  0  0  0
110246  1  0  0  0
111112  2  0  0  0
111113  1  0  0  0
112114  1  0  0  0
113115  2  0  0  0
113247  1  0  0  0
114115  1  0  0  0
114248  1  0  0  0
116117  1  0  0  0
116249  1  0  0  0
117118  1  0  0  0
117120  1  0  0  0
117250  1  0  0  0
118119  2  0  0  0
118122  1  0  0  0
120121  1  0  0  0
120251  1  0  0  0
120252  1  0  0  0
121253  1  0  0  0
122254  1  0  0  0
M  CHG  3   1   1  56   1  89   1
M  END
> <s_m_source_file>
../5aer_ligand.sdf

> <i_m_source_file_index>
1

> <s_epik_input>
Tz1DKFtOSDJdKVtDSDJdW0NASF0oW05IMytdKUMoPU8pW05IXVtDQEBIXShbQ0BASF0oW0NIM10pW0NIMl1bQ0gzXSlDKD1PKVtOSF1bQ0BASF0oW0NIMl1bQ0gyXUMoPU8pW09IXSlDKD1PKVtOSF1bQ0BASF0oW0NIMl1jMVtjSF1bY0hdW2NIXVtjSF1bY0hdMSlDKD1PKVtOSF1bQ0BASF0oW0NIMl1bQ0gyXVtDSDJdW05IXS9DKFtOSDJdKT1OXFtIXSlDKD1PKVtOSF1bQ0BASF0oW0NIMl1bQ0gyXVtDSDJdW0NIMl1bTkgzK10pQyg9TylbTkhdW0NAQEhdKFtDSDNdKUMoPU8pW05IXVtDQEBIXShbQ0gyXWMyW2NIXVtjSF1bY0hdW2NIXVtjSF0yKUMoPU8pW05IXVtDQEBIXShbQ0gyXVtDSF0oW0NIM10pW0NIM10pQyg9TylbTkhdW0NAQEhdKFtDSDJdW0NIMl1bQ0gyXVtDSDJdW05IMytdKUMoPU8pW05IXVtDQEBIXShbQ0BASF0oW0NIM10pW0NIMl1bQ0gzXSlDKD1PKVtOSF1bQ0BASF0oW0NIMl1bQ0hdKFtDSDNdKVtDSDNdKUMoPU8pW05IXVtDQEhdKEMoPU8pW05IXVtDQEhdKEMoPU8pW09IXSlbQ0gyXVtPSF0pW0NIMl1DMz1OW0NIMl1OPVtDSF0z

> <s_epik_cmdline>
J2VwaWtfYXBwJywgJy1pbWFlJywgJ2xpZ2FuZF9wcm8ubWFlJywgJy1vbWFlJywgJ2xpZ2FuZF9wcmVwLm1hZScsICctbXMnLCAnMScsICctcGgnLCAnNycsICctcGh0JywgJzAuNScsICctbnQn

> <s_epik_pKa_notes>
Molecule size exceeds maximum supported for generating protonation states

> <s_epik_Chemistry_Notes>
This compound has an imine and may undergo hydrolysis.

$$$$
