5aes_ligand
                    3D
 Schrodinger Suite 2020-3.
 29 29  0  0  1  0            999 V2000
   24.9660  -60.4920   53.7780 O   0  5  0  0  0  0
   24.1780  -60.2760   52.4560 P   0  0  0  0  0  0
   25.0070  -59.3880   51.4870 O   0  0  0  0  0  0
   23.9130  -61.6090   51.8230 O   0  0  0  0  0  0
   22.6300  -59.4270   52.8670 C   0  0  0  0  0  0
   21.8000  -58.8220   51.7930 C   0  0  0  0  0  0
   20.6290  -58.0410   52.2920 C   0  0  0  0  0  0
   20.6000  -56.6580   52.1380 C   0  0  0  0  0  0
   19.5580  -55.9540   52.5960 N   0  3  0  0  0  0
   18.5390  -56.5700   53.2070 C   0  0  0  0  0  0
   17.3910  -55.7650   53.7060 C   0  0  0  0  0  0
   18.5080  -57.9340   53.3910 C   0  0  0  0  0  0
   17.4350  -58.5110   54.0280 O   0  5  0  0  0  0
   19.5780  -58.7010   52.9270 C   0  0  0  0  0  0
   19.6070  -60.1860   53.1080 C   0  0  0  0  0  0
   18.4060  -60.8440   53.2920 O   0  0  0  0  0  0
   25.9847  -59.7361   51.1225 H   0  0  0  0  0  0
   21.9460  -60.1314   53.3630 H   0  0  0  0  0  0
   22.8418  -58.5847   53.5420 H   0  0  0  0  0  0
   22.4169  -58.1337   51.1967 H   0  0  0  0  0  0
   21.4049  -59.6168   51.1432 H   0  0  0  0  0  0
   21.4268  -56.1478   51.6439 H   0  0  0  0  0  0
   17.5650  -54.7017   53.4845 H   0  0  0  0  0  0
   17.2923  -55.9017   54.7930 H   0  0  0  0  0  0
   16.4672  -56.0966   53.2093 H   0  0  0  0  0  0
   20.0547  -60.6550   52.2194 H   0  0  0  0  0  0
   20.2067  -60.4356   53.9958 H   0  0  0  0  0  0
   18.3921  -61.9355   53.4280 H   0  0  0  0  0  0
   19.5351  -54.8613   52.4714 H   0  0  0  0  0  0
  1  2  1  0  0  0
  2  3  1  0  0  0
  2  4  2  0  0  0
  2  5  1  0  0  0
  3 17  1  0  0  0
  5  6  1  0  0  0
  5 18  1  0  0  0
  5 19  1  0  0  0
  6  7  1  0  0  0
  6 20  1  0  0  0
  6 21  1  0  0  0
  7  8  2  0  0  0
  7 14  1  0  0  0
  8  9  1  0  0  0
  8 22  1  0  0  0
  9 10  2  0  0  0
  9 29  1  0  0  0
 10 11  1  0  0  0
 10 12  1  0  0  0
 11 23  1  0  0  0
 11 24  1  0  0  0
 11 25  1  0  0  0
 12 13  1  0  0  0
 12 14  2  0  0  0
 14 15  1  0  0  0
 15 16  1  0  0  0
 15 26  1  0  0  0
 15 27  1  0  0  0
 16 28  1  0  0  0
M  CHG  3   1  -1   9   1  13  -1
M  END
> <s_m_source_file>
../5aes_ligand.sdf

> <i_m_source_file_index>
1

> <s_epik_input>
W09IXVAoPU8pKFtPSF0pW0NIMl1bQ0gyXWMxW2NIXW5jKFtDSDNdKWMoW09IXSljMVtDSDJdW09IXQ==

> <s_epik_cmdline>
J2VwaWtfYXBwJywgJy1pbWFlJywgJ2xpZ2FuZF9wcm8ubWFlJywgJy1vbWFlJywgJ2xpZ2FuZF9wcmVwLm1hZScsICctbXMnLCAnMScsICctcGgnLCAnNycsICctcGh0JywgJzAuNScsICctbnQn

> <r_lp_tautomer_probability>
1

> <r_epik_Ionization_Penalty>
  0.1765

> <r_epik_Ionization_Penalty_Charging>
  0.0152

> <r_epik_Ionization_Penalty_Neutral>
  0.1614

> <r_epik_State_Penalty>
 -0.0000

> <r_epik_Charging_Adjusted_Penalty>
0.0151630009205725

> <i_epik_Tot_Q>
-1

> <i_epik_Tot_abs_Q>
3

$$$$
