5afj_ligand
                    3D
 Schrodinger Suite 2020-3.
 34 35  0  0  1  0            999 V2000
   11.5740   30.9420   11.0240 C   0  0  0  0  0  0
   12.2840   32.0860   10.3900 N   0  3  3  0  0  0
   11.4980   32.7130    9.3650 C   0  0  0  0  0  0
   11.3370   34.1920    9.5200 C   0  0  2  0  0  0
   10.2050   34.3600   10.4630 C   0  0  0  0  0  0
   10.9950   34.7520    8.3320 O   0  0  0  0  0  0
   12.5490   34.9230    9.9860 C   0  0  0  0  0  0
   12.5870   36.1550   10.0180 O   0  0  0  0  0  0
   13.7740   34.1160   10.4230 C   0  0  0  0  0  0
   13.5820   32.6340   10.6280 C   0  0  3  0  0  0
   14.7330   31.7980   11.0390 C   0  0  0  0  0  0
   15.0250   31.5910   12.3770 C   0  0  0  0  0  0
   16.0910   30.8300   12.7140 C   0  0  0  0  0  0
   16.8740   30.2690   11.7090 C   0  0  0  0  0  0
   18.4040   29.1630   12.1550 Br  0  0  0  0  0  0
   16.5920   30.4710   10.4060 C   0  0  0  0  0  0
   15.5120   31.2430   10.0600 C   0  0  0  0  0  0
   10.5806   30.8276   10.5657 H   0  0  0  0  0  0
   11.4611   31.1323   12.1015 H   0  0  0  0  0  0
   12.1556   30.0206   10.8733 H   0  0  0  0  0  0
   12.7151   31.4041    9.6423 H   0  0  0  0  0  0
   11.9707   32.5448    8.3861 H   0  0  0  0  0  0
   10.4864   32.2809    9.3628 H   0  0  0  0  0  0
    9.3303   33.8085   10.0878 H   0  0  0  0  0  0
    9.9556   35.4278   10.5499 H   0  0  0  0  0  0
   10.4894   33.9683   11.4508 H   0  0  0  0  0  0
   10.1192   34.3797    7.7803 H   0  0  0  0  0  0
   14.5642   34.2088    9.6634 H   0  0  0  0  0  0
   14.1430   34.5015   11.3849 H   0  0  0  0  0  0
   13.8509   32.4537    9.5767 H   0  0  0  0  0  0
   14.4012   32.0374   13.1514 H   0  0  0  0  0  0
   16.3347   30.6576   13.7623 H   0  0  0  0  0  0
   17.2175   30.0242    9.6332 H   0  0  0  0  0  0
   15.2753   31.4137    9.0098 H   0  0  0  0  0  0
  1  2  1  0  0  0
  1 18  1  0  0  0
  1 19  1  0  0  0
  1 20  1  0  0  0
  2  3  1  0  0  0
  2 10  1  0  0  0
  2 21  1  0  0  0
  3  4  1  0  0  0
  3 22  1  0  0  0
  3 23  1  0  0  0
  4  5  1  0  0  0
  4  6  1  0  0  0
  4  7  1  0  0  0
  5 24  1  0  0  0
  5 25  1  0  0  0
  5 26  1  0  0  0
  6 27  1  0  0  0
  7  8  2  0  0  0
  7  9  1  0  0  0
  9 10  1  0  0  0
  9 28  1  0  0  0
  9 29  1  0  0  0
 10 11  1  0  0  0
 10 30  1  0  0  0
 11 12  2  0  0  0
 11 17  1  0  0  0
 12 13  1  0  0  0
 12 31  1  0  0  0
 13 14  2  0  0  0
 13 32  1  0  0  0
 14 15  1  0  0  0
 14 16  1  0  0  0
 16 17  2  0  0  0
 16 33  1  0  0  0
 17 34  1  0  0  0
M  CHG  1   2   1
M  END
> <s_m_source_file>
../5afj_ligand.sdf

> <i_m_source_file_index>
1

> <s_epik_input>
W0NIM11bQ0BdMShbT0hdKVtDSDJdW05IK10oW0NIM10pW0NIXShbQ0gyXUMxPU8pYzJbY0hdW2NIXWMoQnIpW2NIXVtjSF0y

> <s_epik_cmdline>
J2VwaWtfYXBwJywgJy1pbWFlJywgJ2xpZ2FuZF9wcm8ubWFlJywgJy1vbWFlJywgJ2xpZ2FuZF9wcmVwLm1hZScsICctbXMnLCAnMScsICctcGgnLCAnNycsICctcGh0JywgJzAuNScsICctbnQn

> <r_lp_tautomer_probability>
0.99995

> <r_epik_Ionization_Penalty>
  0.0630

> <r_epik_Ionization_Penalty_Charging>
  0.0630

> <r_epik_Ionization_Penalty_Neutral>
  0.0000

> <r_epik_State_Penalty>
  0.0547

> <r_epik_Charging_Adjusted_Penalty>
0.117691298425335

> <i_epik_Tot_Q>
1

> <i_epik_Tot_abs_Q>
1

$$$$
