5afk_ligand
                    3D
 Schrodinger Suite 2020-3.
 28 29  0  0  1  0            999 V2000
  -50.6760   -0.9890  -23.2510 O   0  0  0  0  0  0
  -51.6980   -1.5910  -22.9560 C   0  0  0  0  0  0
  -52.5610   -2.1420  -23.9740 N   0  0  0  0  0  0
  -52.3460   -2.0990  -25.4030 C   0  0  0  0  0  0
  -51.0710   -2.0510  -25.9650 C   0  0  0  0  0  0
  -50.9050   -2.0380  -27.3450 C   0  0  0  0  0  0
  -52.0200   -2.0960  -28.1690 C   0  0  0  0  0  0
  -51.8690   -2.0880  -29.4840 F   0  0  0  0  0  0
  -53.2920   -2.1540  -27.6260 C   0  0  0  0  0  0
  -53.4490   -2.1670  -26.2440 C   0  0  0  0  0  0
  -54.6670   -2.2320  -25.7130 F   0  0  0  0  0  0
  -52.0070   -1.7270  -21.5620 N   0  0  0  0  0  0
  -51.1990   -1.2020  -20.4970 C   0  0  0  0  0  0
  -52.0740   -1.0590  -19.3040 C   0  0  0  0  0  0
  -53.2880   -1.8740  -19.5970 C   0  0  0  0  0  0
  -53.1380   -2.3860  -20.9900 C   0  0  0  0  0  0
  -53.4896   -2.6575  -23.6878 H   0  0  0  0  0  0
  -50.1958   -2.0234  -25.3159 H   0  0  0  0  0  0
  -49.9058   -1.9826  -27.7770 H   0  0  0  0  0  0
  -54.1652   -2.1893  -28.2774 H   0  0  0  0  0  0
  -50.3724   -1.8967  -20.2873 H   0  0  0  0  0  0
  -50.7903   -0.2249  -20.7942 H   0  0  0  0  0  0
  -51.5454   -1.4327  -18.4147 H   0  0  0  0  0  0
  -52.3282    0.0016  -19.1607 H   0  0  0  0  0  0
  -53.3529   -2.7059  -18.8802 H   0  0  0  0  0  0
  -54.1841   -1.2423  -19.5077 H   0  0  0  0  0  0
  -54.0347   -2.1582  -21.5849 H   0  0  0  0  0  0
  -52.9664   -3.4725  -20.9868 H   0  0  0  0  0  0
  1  2  2  0  0  0
  2  3  1  0  0  0
  2 12  1  0  0  0
  3  4  1  0  0  0
  3 17  1  0  0  0
  4  5  2  0  0  0
  4 10  1  0  0  0
  5  6  1  0  0  0
  5 18  1  0  0  0
  6  7  2  0  0  0
  6 19  1  0  0  0
  7  8  1  0  0  0
  7  9  1  0  0  0
  9 10  2  0  0  0
  9 20  1  0  0  0
 10 11  1  0  0  0
 12 13  1  0  0  0
 12 16  1  0  0  0
 13 14  1  0  0  0
 13 21  1  0  0  0
 13 22  1  0  0  0
 14 15  1  0  0  0
 14 23  1  0  0  0
 14 24  1  0  0  0
 15 16  1  0  0  0
 15 25  1  0  0  0
 15 26  1  0  0  0
 16 27  1  0  0  0
 16 28  1  0  0  0
M  END
> <s_m_source_file>
../5afk_ligand.sdf

> <i_m_source_file_index>
1

> <s_epik_input>
W0NIMl0xW0NIMl1bQ0gyXVtDSDJdTjFDKD1PKVtOSF1jMltjSF1bY0hdYyhGKVtjSF1jMkY=

> <s_epik_cmdline>
J2VwaWtfYXBwJywgJy1pbWFlJywgJ2xpZ2FuZF9wcm8ubWFlJywgJy1vbWFlJywgJ2xpZ2FuZF9wcmVwLm1hZScsICctbXMnLCAnMScsICctcGgnLCAnNycsICctcGh0JywgJzAuNScsICctbnQn

> <r_lp_tautomer_probability>
1

> <r_epik_Ionization_Penalty>
  0.0000

> <r_epik_Ionization_Penalty_Charging>
  0.0000

> <r_epik_Ionization_Penalty_Neutral>
  0.0000

> <r_epik_State_Penalty>
 -0.0000

> <r_epik_Charging_Adjusted_Penalty>
0

> <i_epik_Tot_Q>
0

> <i_epik_Tot_abs_Q>
0

$$$$
