5afl_ligand
                    3D
 Schrodinger Suite 2020-3.
 31 32  0  0  1  0            999 V2000
   -0.9190   16.9010   35.1180 C   0  0  0  0  0  0
   -1.1480   15.8420   34.2370 C   0  0  0  0  0  0
   -0.0500   14.8710   33.9730 N   0  0  0  0  0  0
    0.0120   13.9970   32.8150 C   0  0  0  0  0  0
    1.1570   13.0360   32.5950 N   0  0  0  0  0  0
    2.3150   12.8390   33.4540 C   0  0  0  0  0  0
    2.9370   11.5820   33.0700 C   0  0  0  0  0  0
    2.4020   11.2560   31.7130 C   0  0  0  0  0  0
    1.2580   12.1890   31.4700 C   0  0  0  0  0  0
   -0.8830   14.0070   31.9210 O   0  0  0  0  0  0
   -2.3850   15.7520   33.6490 C   0  0  0  0  0  0
   -3.4490   16.7120   33.9270 C   0  0  0  0  0  0
   -3.2220   17.7250   34.7900 C   0  0  0  0  0  0
   -1.9640   17.8270   35.3770 C   0  0  0  0  0  0
   -1.7080   18.9420   36.3220 C   0  0  0  0  0  0
    0.0511   17.0156   35.6015 H   0  0  0  0  0  0
    0.7874   14.7819   34.6807 H   0  0  0  0  0  0
    3.0190   13.6731   33.3174 H   0  0  0  0  0  0
    1.9903   12.8015   34.5043 H   0  0  0  0  0  0
    4.0298   11.7055   33.0474 H   0  0  0  0  0  0
    2.6710   10.8032   33.7999 H   0  0  0  0  0  0
    3.1930   11.4011   30.9625 H   0  0  0  0  0  0
    2.0655   10.2089   31.6933 H   0  0  0  0  0  0
    0.3208   11.6258   31.3497 H   0  0  0  0  0  0
    1.4398   12.7948   30.5700 H   0  0  0  0  0  0
   -2.5792   14.9371   32.9517 H   0  0  0  0  0  0
   -4.4196   16.6116   33.4413 H   0  0  0  0  0  0
   -4.0056   18.4463   35.0218 H   0  0  0  0  0  0
   -0.6744   18.8782   36.6930 H   0  0  0  0  0  0
   -2.4065   18.8725   37.1689 H   0  0  0  0  0  0
   -1.8533   19.9018   35.8046 H   0  0  0  0  0  0
  1  2  2  0  0  0
  1 14  1  0  0  0
  1 16  1  0  0  0
  2  3  1  0  0  0
  2 11  1  0  0  0
  3  4  1  0  0  0
  3 17  1  0  0  0
  4  5  1  0  0  0
  4 10  2  0  0  0
  5  6  1  0  0  0
  5  9  1  0  0  0
  6  7  1  0  0  0
  6 18  1  0  0  0
  6 19  1  0  0  0
  7  8  1  0  0  0
  7 20  1  0  0  0
  7 21  1  0  0  0
  8  9  1  0  0  0
  8 22  1  0  0  0
  8 23  1  0  0  0
  9 24  1  0  0  0
  9 25  1  0  0  0
 11 12  2  0  0  0
 11 26  1  0  0  0
 12 13  1  0  0  0
 12 27  1  0  0  0
 13 14  2  0  0  0
 13 28  1  0  0  0
 14 15  1  0  0  0
 15 29  1  0  0  0
 15 30  1  0  0  0
 15 31  1  0  0  0
M  END
> <s_m_source_file>
../5afl_ligand.sdf

> <i_m_source_file_index>
1

> <s_epik_input>
W2NIXTFbY0hdW2NIXWMoW0NIM10pW2NIXWMxW05IXUMoPU8pTjJbQ0gyXVtDSDJdW0NIMl1bQ0gyXTI=

> <s_epik_cmdline>
J2VwaWtfYXBwJywgJy1pbWFlJywgJ2xpZ2FuZF9wcm8ubWFlJywgJy1vbWFlJywgJ2xpZ2FuZF9wcmVwLm1hZScsICctbXMnLCAnMScsICctcGgnLCAnNycsICctcGh0JywgJzAuNScsICctbnQn

> <r_lp_tautomer_probability>
1

> <r_epik_Ionization_Penalty>
  0.0000

> <r_epik_Ionization_Penalty_Charging>
  0.0000

> <r_epik_Ionization_Penalty_Neutral>
  0.0000

> <r_epik_State_Penalty>
 -0.0000

> <r_epik_Charging_Adjusted_Penalty>
0

> <i_epik_Tot_Q>
0

> <i_epik_Tot_abs_Q>
0

$$$$
