5afm_ligand
                    3D
 Schrodinger Suite 2020-3.
 23 23  0  0  1  0            999 V2000
   28.6070    8.9240  -26.6830 O   0  0  0  0  0  0
   29.3750    8.5490  -27.5620 C   0  0  0  0  0  0
   30.7830    8.3870  -27.3110 N   0  0  0  0  0  0
   31.4600    8.6700  -26.0730 C   0  0  0  0  0  0
   31.3040    7.8190  -24.8390 C   0  0  0  0  0  0
   30.1050    8.0380  -23.9730 C   0  0  0  0  0  0
   30.1220    7.6310  -22.6490 O   0  0  0  0  0  0
   28.8790    8.2620  -28.9400 C   0  0  0  0  0  0
   29.7060    8.1960  -30.0540 C   0  0  0  0  0  0
   28.8910    7.9670  -31.1490 C   0  0  3  0  0  0
   29.4760    7.7910  -32.9910 Br  0  0  0  0  0  0
   27.5810    7.9060  -30.6880 C   0  0  0  0  0  0
   26.0250    7.5800  -31.8200 Br  0  0  0  0  0  0
   27.6050    8.0700  -29.3400 N   0  0  0  0  0  0
   31.3506    8.0101  -28.1746 H   0  0  0  0  0  0
   32.5475    8.6496  -26.2368 H   0  0  0  0  0  0
   31.1623    9.6653  -25.7115 H   0  0  0  0  0  0
   31.2534    6.7590  -25.1286 H   0  0  0  0  0  0
   32.1656    7.9766  -24.1736 H   0  0  0  0  0  0
   29.8849    9.1143  -23.9169 H   0  0  0  0  0  0
   29.2412    7.5090  -24.4021 H   0  0  0  0  0  0
   29.2395    7.7925  -22.0126 H   0  0  0  0  0  0
   30.7930    8.3208  -29.9402 H   0  0  0  0  0  0
  1  2  2  0  0  0
  2  3  1  0  0  0
  2  8  1  0  0  0
  3  4  1  0  0  0
  3 15  1  0  0  0
  4  5  1  0  0  0
  4 16  1  0  0  0
  4 17  1  0  0  0
  5  6  1  0  0  0
  5 18  1  0  0  0
  5 19  1  0  0  0
  6  7  1  0  0  0
  6 20  1  0  0  0
  6 21  1  0  0  0
  7 22  1  0  0  0
  8  9  2  0  0  0
  8 14  1  0  0  0
  9 10  1  0  0  0
  9 23  1  0  0  0
 10 11  1  0  0  0
 10 12  1  0  0  0
 12 13  1  0  0  0
 12 14  2  0  0  0
M  END
> <s_m_source_file>
../5afm_ligand.sdf

> <i_m_source_file_index>
1

> <s_epik_input>
QnJDKD1OMSlbQ0hdKEJyKVtDSF09QzFDKD1PKVtOSF1bQ0gyXVtDSDJdW0NIMl1bT0hd

> <s_epik_cmdline>
J2VwaWtfYXBwJywgJy1pbWFlJywgJ2xpZ2FuZF9wcm8ubWFlJywgJy1vbWFlJywgJ2xpZ2FuZF9wcmVwLm1hZScsICctbXMnLCAnMScsICctcGgnLCAnNycsICctcGh0JywgJzAuNScsICctbnQn

> <r_epik_Ionization_Penalty>
  0.2272

> <r_epik_Ionization_Penalty_Charging>
  0.0000

> <r_epik_Ionization_Penalty_Neutral>
  0.2272

> <r_epik_State_Penalty>
  0.2178

> <r_epik_Charging_Adjusted_Penalty>
0.217759996798613

> <i_epik_Tot_Q>
0

> <i_epik_Tot_abs_Q>
0

> <s_epik_Chemistry_Notes>
This compound has an imine and may undergo hydrolysis.

$$$$
