5afn_ligand
                    3D
 Schrodinger Suite 2020-3.
 29 30  0  0  1  0            999 V2000
   42.0000  -10.0240   15.0240 O   0  0  0  0  0  0
   41.1380  -10.8970   14.8560 C   0  0  0  0  0  0
   39.7310  -10.8640   15.4080 C   0  0  0  0  0  0
   39.3140  -12.2550   15.3470 C   0  0  1  0  0  0
   37.8030  -12.3320   15.0610 C   0  0  0  0  0  0
   37.3560  -13.5920   14.4410 C   0  0  0  0  0  0
   36.1170  -13.4310   13.5890 C   0  0  0  0  0  0
   36.1790  -12.5900   12.4780 C   0  0  0  0  0  0
   35.0680  -12.3970   11.6710 C   0  0  0  0  0  0
   33.8680  -13.0640   11.9860 C   0  0  0  0  0  0
   33.8490  -13.9180   13.1390 C   0  0  0  0  0  0
   34.9100  -14.1240   13.9460 C   0  0  0  0  0  0
   40.0730  -12.8580   14.1680 C   0  0  0  0  0  0
   41.3000  -12.1250   14.1150 N   0  0  0  0  0  0
   39.7499  -10.4760   16.4371 H   0  0  0  0  0  0
   39.1064  -10.2105   14.7812 H   0  0  0  0  0  0
   39.5430  -12.7411   16.3068 H   0  0  0  0  0  0
   37.2456  -12.2267   16.0035 H   0  0  0  0  0  0
   37.5181  -11.5215   14.3740 H   0  0  0  0  0  0
   38.1542  -13.9860   13.7948 H   0  0  0  0  0  0
   37.1250  -14.3258   15.2272 H   0  0  0  0  0  0
   37.1119  -12.0784   12.2413 H   0  0  0  0  0  0
   35.1225  -11.7380   10.8045 H   0  0  0  0  0  0
   32.9778  -12.9349   11.3705 H   0  0  0  0  0  0
   32.9184  -14.4328   13.3778 H   0  0  0  0  0  0
   34.8550  -14.7771   14.8169 H   0  0  0  0  0  0
   40.2440  -13.9291   14.3512 H   0  0  0  0  0  0
   39.4818  -12.7330   13.2488 H   0  0  0  0  0  0
   42.1614  -12.5335   13.5663 H   0  0  0  0  0  0
  1  2  2  0  0  0
  2  3  1  0  0  0
  2 14  1  0  0  0
  3  4  1  0  0  0
  3 15  1  0  0  0
  3 16  1  0  0  0
  4  5  1  0  0  0
  4 13  1  0  0  0
  4 17  1  0  0  0
  5  6  1  0  0  0
  5 18  1  0  0  0
  5 19  1  0  0  0
  6  7  1  0  0  0
  6 20  1  0  0  0
  6 21  1  0  0  0
  7  8  2  0  0  0
  7 12  1  0  0  0
  8  9  1  0  0  0
  8 22  1  0  0  0
  9 10  2  0  0  0
  9 23  1  0  0  0
 10 11  1  0  0  0
 10 24  1  0  0  0
 11 12  2  0  0  0
 11 25  1  0  0  0
 12 26  1  0  0  0
 13 14  1  0  0  0
 13 27  1  0  0  0
 13 28  1  0  0  0
 14 29  1  0  0  0
M  END
> <s_m_source_file>
../5afn_ligand.sdf

> <i_m_source_file_index>
1

> <s_epik_input>
Tz1DMVtDSDJdW0NASF0oW0NIMl1bTkhdMSlbQ0gyXVtDSDJdYzJbY0hdW2NIXVtjSF1bY0hdW2NIXTI=

> <s_epik_cmdline>
J2VwaWtfYXBwJywgJy1pbWFlJywgJ2xpZ2FuZF9wcm8ubWFlJywgJy1vbWFlJywgJ2xpZ2FuZF9wcmVwLm1hZScsICctbXMnLCAnMScsICctcGgnLCAnNycsICctcGh0JywgJzAuNScsICctbnQn

> <r_lp_tautomer_probability>
1

> <r_epik_Ionization_Penalty>
  0.0000

> <r_epik_Ionization_Penalty_Charging>
  0.0000

> <r_epik_Ionization_Penalty_Neutral>
  0.0000

> <r_epik_State_Penalty>
 -0.0000

> <r_epik_Charging_Adjusted_Penalty>
0

> <i_epik_Tot_Q>
0

> <i_epik_Tot_abs_Q>
0

$$$$
