5afv_ligand
                    3D
 Schrodinger Suite 2020-3.
 37 39  0  0  1  0            999 V2000
   10.4870  -16.4850   -5.0540 C   0  0  0  0  0  0
   10.4010  -12.4200   -6.6000 C   0  0  0  0  0  0
    9.5770  -11.7830   -5.6800 C   0  0  0  0  0  0
    9.9000  -12.8530   -7.8170 C   0  0  0  0  0  0
    8.5620  -12.6480   -8.1170 C   0  0  0  0  0  0
    7.7460  -12.0190   -7.1880 C   0  0  0  0  0  0
    8.2390  -11.5940   -5.9660 C   0  0  0  0  0  0
   12.5750  -15.0500   -5.6220 C   0  0  0  0  0  0
   13.5650  -14.7240   -6.5690 C   0  0  0  0  0  0
   13.6530  -15.3540   -7.7990 C   0  0  0  0  0  0
   12.7040  -16.3120   -8.1040 C   0  0  0  0  0  0
   11.7020  -16.6290   -7.1710 C   0  0  0  0  0  0
   11.5920  -16.0180   -5.9030 C   0  0  0  0  0  0
    9.5190  -14.1270   -2.2590 C   0  0  0  0  0  0
    9.8850  -14.7460   -3.3800 N   0  3  0  0  0  0
   10.0960  -13.7580   -4.2050 C   0  0  0  0  0  0
    9.8610  -12.5850   -3.6180 N   0  0  0  0  0  0
    9.5140  -12.7990   -2.4710 N   0  0  0  0  0  0
   10.0780  -11.3900   -4.4800 C   0  0  0  0  0  0
   10.1340  -15.9410   -3.6990 N   0  0  3  0  0  0
    9.5338  -16.3512   -5.5864 H   0  0  0  0  0  0
   10.6296  -17.5502   -4.8195 H   0  0  0  0  0  0
   11.4524  -12.5807   -6.3617 H   0  0  0  0  0  0
   10.5531  -13.3513   -8.5335 H   0  0  0  0  0  0
    8.1554  -12.9777   -9.0731 H   0  0  0  0  0  0
    6.6947  -11.8560   -7.4251 H   0  0  0  0  0  0
    7.5806  -11.1170   -5.2400 H   0  0  0  0  0  0
   12.5697  -14.5449   -4.6561 H   0  0  0  0  0  0
   14.2891  -13.9467   -6.3247 H   0  0  0  0  0  0
   14.4452  -15.1026   -8.5042 H   0  0  0  0  0  0
   12.7329  -16.8210   -9.0674 H   0  0  0  0  0  0
   10.9689  -17.3890   -7.4414 H   0  0  0  0  0  0
    9.2642  -14.6182   -1.3199 H   0  0  0  0  0  0
   10.4217  -13.8763   -5.2385 H   0  0  0  0  0  0
   11.1428  -11.1376   -4.5921 H   0  0  0  0  0  0
    9.5273  -10.5067   -4.1242 H   0  0  0  0  0  0
   10.0680  -16.6181   -2.8346 H   0  0  0  0  0  0
  1 13  1  0  0  0
  1 20  1  0  0  0
  1 21  1  0  0  0
  1 22  1  0  0  0
  2  3  2  0  0  0
  2  4  1  0  0  0
  2 23  1  0  0  0
  3  7  1  0  0  0
  3 19  1  0  0  0
  4  5  2  0  0  0
  4 24  1  0  0  0
  5  6  1  0  0  0
  5 25  1  0  0  0
  6  7  2  0  0  0
  6 26  1  0  0  0
  7 27  1  0  0  0
  8  9  2  0  0  0
  8 13  1  0  0  0
  8 28  1  0  0  0
  9 10  1  0  0  0
  9 29  1  0  0  0
 10 11  2  0  0  0
 10 30  1  0  0  0
 11 12  1  0  0  0
 11 31  1  0  0  0
 12 13  2  0  0  0
 12 32  1  0  0  0
 14 15  1  0  0  0
 14 18  2  0  0  0
 14 33  1  0  0  0
 15 16  2  0  0  0
 15 20  1  0  0  0
 16 17  1  0  0  0
 16 34  1  0  0  0
 17 18  1  0  0  0
 17 19  1  0  0  0
 19 35  1  0  0  0
 19 36  1  0  0  0
 20 37  1  0  0  0
M  CHG  1  15   1
M  END
> <s_m_source_file>
../5afv_ligand.sdf

> <i_m_source_file_index>
1

> <s_epik_input>
W2NIXTFbY0hdW2NIXVtjSF1bY0hdYzFbQ0gyXVtOSF1bbitdMltjSF1ubihbY0hdMilbQ0gyXWMzW2NIXVtjSF1bY0hdW2NIXVtjSF0z

> <s_epik_cmdline>
J2VwaWtfYXBwJywgJy1pbWFlJywgJ2xpZ2FuZF9wcm8ubWFlJywgJy1vbWFlJywgJ2xpZ2FuZF9wcmVwLm1hZScsICctbXMnLCAnMScsICctcGgnLCAnNycsICctcGh0JywgJzAuNScsICctbnQn

> <r_lp_tautomer_probability>
1

> <r_epik_Ionization_Penalty>
  0.0000

> <r_epik_Ionization_Penalty_Charging>
  0.0000

> <r_epik_Ionization_Penalty_Neutral>
  0.0000

> <r_epik_State_Penalty>
 -0.0000

> <r_epik_Charging_Adjusted_Penalty>
0

> <i_epik_Tot_Q>
1

> <i_epik_Tot_abs_Q>
1

$$$$
