5afx_ligand
                    3D
 Schrodinger Suite 2020-3.
 51 51  0  0  1  0            999 V2000
   31.3350    8.2690   15.2260 C   0  0  0  0  0  0
   30.3040    7.8520   14.1720 C   0  0  0  0  0  0
   29.1670    8.8720   13.9880 C   0  0  0  0  0  0
   27.9470    8.2830   13.2250 C   0  0  0  0  0  0
   26.9370    7.6420   14.1850 C   0  0  0  0  0  0
   27.5600    6.7390   15.2860 C   0  0  0  0  0  0
   27.5170    5.2320   14.9210 C   0  0  0  0  0  0
   26.7320    4.2920   15.8750 C   0  0  0  0  0  0
   27.1540    2.8080   15.6820 C   0  0  0  0  0  0
   26.2740    1.9240   16.4530 N   0  3  0  0  0  0
   26.6020    0.7680   17.0320 C   0  0  0  0  0  0
   25.4810    0.2700   17.6750 C   0  0  0  0  0  0
   24.4810    1.1390   17.4500 N   0  0  0  0  0  0
   24.9610    2.1600   16.6950 C   0  0  0  0  0  0
   23.0940    1.0910   17.8810 C   0  0  0  0  0  0
   22.3380   -0.0950   17.3340 C   0  0  2  0  0  0
   22.9570   -1.2500   17.8570 O   0  0  0  0  0  0
   22.2620   -0.3430   15.5090 P   0  0  0  0  0  0
   21.3440    0.6760   14.8280 O   0  5  0  0  0  0
   21.6520   -1.7400   15.4350 O   0  0  0  0  0  0
   23.6800   -0.3440   14.9190 O   0  5  0  0  0  0
   20.6450   -0.0580   17.9690 P   0  0  0  0  0  0
   20.1690   -1.4650   18.3060 O   0  5  0  0  0  0
   19.6100    0.6220   17.0920 O   0  0  0  0  0  0
   20.7930    0.6690   19.2730 O   0  0  0  0  0  0
   32.1139    7.4960   15.3030 H   0  0  0  0  0  0
   30.8370    8.3860   16.1998 H   0  0  0  0  0  0
   31.7942    9.2243   14.9318 H   0  0  0  0  0  0
   30.8020    7.7350   13.1982 H   0  0  0  0  0  0
   29.8448    6.8967   14.4661 H   0  0  0  0  0  0
   28.8152    9.2107   14.9737 H   0  0  0  0  0  0
   29.5374    9.7346   13.4146 H   0  0  0  0  0  0
   27.4385    9.0859   12.6712 H   0  0  0  0  0  0
   28.2926    7.5130   12.5196 H   0  0  0  0  0  0
   26.3742    8.4309   14.7055 H   0  0  0  0  0  0
   26.2402    7.0095   13.6154 H   0  0  0  0  0  0
   28.6131    7.0187   15.4371 H   0  0  0  0  0  0
   27.0064    6.8732   16.2270 H   0  0  0  0  0  0
   27.0473    5.1070   13.9342 H   0  0  0  0  0  0
   28.5414    4.8322   14.8928 H   0  0  0  0  0  0
   26.9310    4.5789   16.9181 H   0  0  0  0  0  0
   25.6547    4.3782   15.6702 H   0  0  0  0  0  0
   27.0852    2.5428   14.6167 H   0  0  0  0  0  0
   28.1897    2.6734   16.0272 H   0  0  0  0  0  0
   27.5841    0.2961   17.0039 H   0  0  0  0  0  0
   25.4212   -0.6518   18.2537 H   0  0  0  0  0  0
   24.3902    3.0198   16.3444 H   0  0  0  0  0  0
   23.0530    1.0316   18.9786 H   0  0  0  0  0  0
   22.5734    1.9993   17.5433 H   0  0  0  0  0  0
   24.0022   -1.4778   17.6006 H   0  0  0  0  0  0
   19.3792    0.2144   16.0967 H   0  0  0  0  0  0
  1  2  1  0  0  0
  1 26  1  0  0  0
  1 27  1  0  0  0
  1 28  1  0  0  0
  2  3  1  0  0  0
  2 29  1  0  0  0
  2 30  1  0  0  0
  3  4  1  0  0  0
  3 31  1  0  0  0
  3 32  1  0  0  0
  4  5  1  0  0  0
  4 33  1  0  0  0
  4 34  1  0  0  0
  5  6  1  0  0  0
  5 35  1  0  0  0
  5 36  1  0  0  0
  6  7  1  0  0  0
  6 37  1  0  0  0
  6 38  1  0  0  0
  7  8  1  0  0  0
  7 39  1  0  0  0
  7 40  1  0  0  0
  8  9  1  0  0  0
  8 41  1  0  0  0
  8 42  1  0  0  0
  9 10  1  0  0  0
  9 43  1  0  0  0
  9 44  1  0  0  0
 10 11  1  0  0  0
 10 14  2  0  0  0
 11 12  2  0  0  0
 11 45  1  0  0  0
 12 13  1  0  0  0
 12 46  1  0  0  0
 13 14  1  0  0  0
 13 15  1  0  0  0
 14 47  1  0  0  0
 15 16  1  0  0  0
 15 48  1  0  0  0
 15 49  1  0  0  0
 16 17  1  0  0  0
 16 18  1  0  0  0
 16 22  1  0  0  0
 17 50  1  0  0  0
 18 19  1  0  0  0
 18 20  2  0  0  0
 18 21  1  0  0  0
 22 23  1  0  0  0
 22 24  1  0  0  0
 22 25  2  0  0  0
 24 51  1  0  0  0
M  CHG  4  10   1  19  -1  21  -1  23  -1
M  END
> <s_m_source_file>
../5afx_ligand.sdf

> <i_m_source_file_index>
1

> <s_epik_input>
W0NIM11bQ0gyXVtDSDJdW0NIMl1bQ0gyXVtDSDJdW0NIMl1bQ0gyXVtDSDJdW24rXTFbY0hdW2NIXW4oW2NIXTEpW0NIMl1DKFtPSF0pKFAoPU8pKFtPSF0pW09IXSlQKD1PKShbT0hdKVtPSF0=

> <s_epik_cmdline>
J2VwaWtfYXBwJywgJy1pbWFlJywgJ2xpZ2FuZF9wcm8ubWFlJywgJy1vbWFlJywgJ2xpZ2FuZF9wcmVwLm1hZScsICctbXMnLCAnMScsICctcGgnLCAnNycsICctcGh0JywgJzAuNScsICctbnQn

> <r_lp_tautomer_probability>
1

> <r_epik_Ionization_Penalty>
  0.1153

> <r_epik_Ionization_Penalty_Charging>
  0.1152

> <r_epik_Ionization_Penalty_Neutral>
  0.0001

> <r_epik_State_Penalty>
  0.1048

> <r_epik_Charging_Adjusted_Penalty>
0.220073125570439

> <i_epik_Tot_Q>
-2

> <i_epik_Tot_abs_Q>
4

$$$$
