5agj_ligand
                    3D
 Schrodinger Suite 2020-3.
 48 53  0  0  1  0            999 V2000
   26.5010   58.8790    9.9720 C   0  0  0  0  0  0
   25.5270   59.9950    9.6710 C   0  0  0  0  0  0
   25.1390   60.5180    8.4430 C   0  0  0  0  0  0
   24.9740   60.5040   10.9160 C   0  0  0  0  0  0
   24.2050   61.5530    8.4150 C   0  0  0  0  0  0
   24.0300   61.5460   10.8720 C   0  0  0  0  0  0
   23.6550   62.0730    9.6130 C   0  0  0  0  0  0
   21.3910   61.7540   17.3110 P   0  0  0  0  0  0
   21.5580   60.5680   18.2340 O   0  5  0  0  0  0
   20.2030   61.6600   16.3930 O   0  0  0  0  0  0
   21.6450   63.0990   17.9720 O   0  5  0  0  0  0
   27.1500   60.5760   16.5510 N   0  0  0  0  0  0
   27.1520   59.2990   16.9880 C   0  0  0  0  0  0
   27.8290   59.2050   18.1530 N   0  0  0  0  0  0
   28.2590   60.4520   18.4610 C   0  0  0  0  0  0
   29.0270   61.0430   19.5630 C   0  0  0  0  0  0
   29.4780   60.2510   20.5690 N   0  0  0  0  0  0
   29.2640   62.3700   19.5340 N   0  0  0  0  0  0
   28.8120   63.1430   18.5280 C   0  0  0  0  0  0
   28.0940   62.6680   17.4970 N   0  0  0  0  0  0
   27.7990   61.3470   17.4210 C   0  0  0  0  0  0
   22.7140   61.6360   16.3830 O   0  0  0  0  0  0
   23.0850   60.3830   15.7810 C   0  0  0  0  0  0
   24.2500   60.6710   14.8470 C   0  0  1  0  0  0
   25.1830   61.4680   15.5870 O   0  0  0  0  0  0
   24.9920   59.4410   14.3430 C   0  0  1  0  0  0
   24.6620   59.0850   13.0070 O   0  0  0  0  0  0
   26.4070   59.9440   14.2800 C   0  0  1  0  0  0
   26.5220   60.3880   12.9440 O   0  0  0  0  0  0
   26.5110   61.0700   15.3070 C   0  0  2  0  0  0
   23.8420   62.0400    7.2110 F   0  0  0  0  0  0
   26.3540   58.7180   11.4010 O   0  0  0  0  0  0
   25.5670   59.7410   12.1220 B   0  5  0  0  0  0
   26.2136   57.9795    9.4079 H   0  0  0  0  0  0
   27.5149   59.1879    9.6779 H   0  0  0  0  0  0
   25.5582   60.1253    7.5166 H   0  0  0  0  0  0
   23.5953   61.9403   11.7905 H   0  0  0  0  0  0
   22.9341   62.8891    9.5643 H   0  0  0  0  0  0
   26.6758   58.4637   16.4746 H   0  0  0  0  0  0
   29.2643   59.1720   20.5575 H   0  0  0  0  0  0
   30.0572   60.6882   21.3957 H   0  0  0  0  0  0
   29.0405   64.2085   18.5517 H   0  0  0  0  0  0
   23.3812   59.6723   16.5666 H   0  0  0  0  0  0
   22.2287   59.9766   15.2228 H   0  0  0  0  0  0
   23.8673   61.2120   13.9690 H   0  0  0  0  0  0
   24.7671   58.5382   14.9298 H   0  0  0  0  0  0
   27.2183   59.2202   14.4469 H   0  0  0  0  0  0
   27.0777   61.9433   14.9518 H   0  0  0  0  0  0
  1  2  1  0  0  0
  1 32  1  0  0  0
  1 34  1  0  0  0
  1 35  1  0  0  0
  2  3  2  0  0  0
  2  4  1  0  0  0
  3  5  1  0  0  0
  3 36  1  0  0  0
  4  6  2  0  0  0
  4 33  1  0  0  0
  5  7  2  0  0  0
  5 31  1  0  0  0
  6  7  1  0  0  0
  6 37  1  0  0  0
  7 38  1  0  0  0
  8  9  1  0  0  0
  8 10  2  0  0  0
  8 11  1  0  0  0
  8 22  1  0  0  0
 12 13  1  0  0  0
 12 21  1  0  0  0
 12 30  1  0  0  0
 13 14  2  0  0  0
 13 39  1  0  0  0
 14 15  1  0  0  0
 15 16  1  0  0  0
 15 21  2  0  0  0
 16 17  1  0  0  0
 16 18  2  0  0  0
 17 40  1  0  0  0
 17 41  1  0  0  0
 18 19  1  0  0  0
 19 20  2  0  0  0
 19 42  1  0  0  0
 20 21  1  0  0  0
 22 23  1  0  0  0
 23 24  1  0  0  0
 23 43  1  0  0  0
 23 44  1  0  0  0
 24 25  1  0  0  0
 24 26  1  0  0  0
 24 45  1  0  0  0
 25 30  1  0  0  0
 26 27  1  0  0  0
 26 28  1  0  0  0
 26 46  1  0  0  0
 27 33  1  0  0  0
 28 29  1  0  0  0
 28 30  1  0  0  0
 28 47  1  0  0  0
 29 33  1  0  0  0
 30 48  1  0  0  0
 32 33  1  0  0  0
M  CHG  3   9  -1  11  -1  33  -1
M  END
> <s_m_source_file>
../5agj_ligand.sdf

> <i_m_source_file_index>
1

> <s_epik_input>
W2NIXTFbY0hdYyhGKVtjSF1jKFtDSDJdTzIpYzFbQi1dMjNPW0NASF00W0NAQEhdKE8zKVtDQEBIXShPW0NAQEhdNFtDSDJdT1AoPU8pKFtPSF0pW09IXSluKFtjSF1uNSljKGM1NiluW2NIXW5jNltOSDJd

> <s_epik_cmdline>
J2VwaWtfYXBwJywgJy1pbWFlJywgJ2xpZ2FuZF9wcm8ubWFlJywgJy1vbWFlJywgJ2xpZ2FuZF9wcmVwLm1hZScsICctbXMnLCAnMScsICctcGgnLCAnNycsICctcGh0JywgJzAuNScsICctbnQn

> <r_lp_tautomer_probability>
0.999997216410988

> <r_epik_Ionization_Penalty>
  0.0965

> <r_epik_Ionization_Penalty_Charging>
  0.0959

> <r_epik_Ionization_Penalty_Neutral>
  0.0006

> <r_epik_State_Penalty>
  0.0861

> <r_epik_Charging_Adjusted_Penalty>
0.181965044896721

> <i_epik_Tot_Q>
-3

> <i_epik_Tot_abs_Q>
3

> <s_epik_Chemistry_Notes>
This compound contains an acetal/aminal-like group ( X-CH(R)-Y where X, Y are N, S, or O) that may be acid/base labile, releasing an aldehyde.

$$$$
