5agu_ligand
                    3D
 Schrodinger Suite 2020-3.
175178  0  0  1  0            999 V2000
  -19.7150   57.1340  -28.1070 C   0  0  0  0  0  0
  -19.4260   57.0000  -26.9310 O   0  0  0  0  0  0
  -19.7940   55.9380  -29.0170 C   0  0  0  0  0  0
  -19.8700   58.4230  -28.6160 N   0  0  0  0  0  0
  -20.7250   58.5090  -29.8150 C   0  0  0  0  0  0
  -20.1050   59.5090  -27.5980 C   0  0  1  0  0  0
  -18.9950   60.5380  -27.8630 C   0  0  0  0  0  0
  -18.7830   61.6130  -26.7730 C   0  0  0  0  0  0
  -17.6720   59.8070  -28.1520 C   0  0  0  0  0  0
  -21.4880   60.1140  -27.7050 C   0  0  0  0  0  0
  -21.6380   61.2090  -28.2040 O   0  0  0  0  0  0
  -24.0610   61.3090  -26.5980 C   0  0  0  0  0  0
  -22.6010   59.3650  -27.3360 N   0  0  0  0  0  0
  -23.2710   61.5750  -25.6990 O   0  0  0  0  0  0
  -23.9630   59.9750  -27.2980 C   0  0  1  0  0  0
  -24.7510   58.8890  -26.5570 C   0  0  0  0  0  0
  -22.4120   58.4410  -26.1960 C   0  0  0  0  0  0
  -24.0960   56.8870  -25.0780 C   0  0  0  0  0  0
  -23.7750   58.3120  -25.5380 C   0  0  2  0  0  0
  -24.9850   62.2640  -27.0420 N   0  0  0  0  0  0
  -27.1010   61.9120  -25.0780 O   0  0  0  0  0  0
  -27.0410   64.4810  -27.2990 O   0  0  0  0  0  0
  -26.4220   62.9340  -25.0220 C   0  0  0  0  0  0
  -25.3480   63.3100  -26.0280 C   0  0  2  0  0  0
  -25.7360   64.6190  -26.7340 C   0  0  1  0  0  0
  -24.7470   64.9430  -27.8460 C   0  0  0  0  0  0
  -26.1020   61.6980  -27.8730 C   0  0  0  0  0  0
  -26.5840   63.8160  -24.0470 N   0  0  0  0  0  0
  -27.7170   63.7910  -23.1470 C   0  0  1  0  0  0
  -27.6030   65.0580  -22.3110 C   0  0  0  0  0  0
  -27.2080   65.0290  -20.8170 C   0  0  0  0  0  0
  -26.3290   66.2360  -20.4420 C   0  0  0  0  0  0
  -26.7220   63.7110  -20.2230 C   0  0  0  0  0  0
  -29.0120   63.8950  -23.9180 C   0  0  0  0  0  0
  -29.0710   64.5380  -24.9500 O   0  0  0  0  0  0
  -32.0600   64.5460  -24.2370 C   0  0  0  0  0  0
  -30.1990   63.3890  -23.4320 N   0  0  0  0  0  0
  -33.2310   64.5450  -23.8900 O   0  0  0  0  0  0
  -31.2950   63.2620  -24.4250 C   0  0  1  0  0  0
  -32.1320   62.0790  -23.9260 C   0  0  0  0  0  0
  -30.1550   62.2010  -22.5620 C   0  0  0  0  0  0
  -31.9560   60.5420  -21.8390 C   0  0  0  0  0  0
  -31.6520   61.9080  -22.4690 C   0  0  2  0  0  0
  -31.3790   65.6650  -24.4330 N   0  0  0  0  0  0
  -32.0130   66.9640  -24.4990 C   0  0  1  0  0  0
  -30.9210   68.0170  -24.6020 C   0  0  0  0  0  0
  -30.0980   68.0980  -23.3090 C   0  0  0  0  0  0
  -30.8740   68.7720  -22.1740 C   0  0  0  0  0  0
  -28.7470   68.7830  -23.5580 C   0  0  0  0  0  0
  -32.9230   67.0650  -25.6980 C   0  0  0  0  0  0
  -32.4550   66.8320  -26.7970 O   0  0  0  0  0  0
  -34.2680   67.3530  -25.5170 N   0  0  0  0  0  0
  -34.4810   68.3120  -24.4020 C   0  0  0  0  0  0
  -35.0750   67.6270  -26.7550 C   0  0  1  0  0  0
  -36.3320   66.7780  -26.6110 C   0  0  0  0  0  0
  -35.9530   65.3250  -26.3760 C   0  0  0  0  0  0
  -37.2530   66.8950  -27.8190 C   0  0  0  0  0  0
  -35.4950   69.0640  -26.9380 C   0  0  0  0  0  0
  -36.4050   69.5500  -26.2900 O   0  0  0  0  0  0
  -32.6810   69.3230  -28.4820 C   0  0  0  0  0  0
  -32.4650   69.6740  -27.3390 O   0  0  0  0  0  0
  -34.1100   69.2920  -28.9240 C   0  0  2  0  0  0
  -34.2700   70.2930  -30.0760 C   0  0  0  0  0  0
  -34.7530   71.5770  -29.4140 C   0  0  0  0  0  0
  -35.5880   71.0800  -28.2430 C   0  0  0  0  0  0
  -34.8140   69.9100  -27.7830 N   0  0  0  0  0  0
  -31.6280   69.0640  -29.3420 N   0  0  0  0  0  0
  -31.8610   67.9000  -30.2470 C   0  0  0  0  0  0
  -30.3170   69.0490  -28.6380 C   0  0  1  0  0  0
  -29.5810   67.7310  -28.7920 C   0  0  0  0  0  0
  -28.6640   67.5910  -29.5850 O   0  0  0  0  0  0
  -29.4610   70.1260  -29.2830 C   0  0  0  0  0  0
  -28.7840   71.1230  -28.3450 C   0  0  0  0  0  0
  -27.3760   71.4240  -28.8440 C   0  0  0  0  0  0
  -28.7950   70.7360  -26.8650 C   0  0  0  0  0  0
  -27.8450   65.6650  -27.3720 C   0  0  0  0  0  0
  -27.4050   66.7240  -26.9470 O   0  0  0  0  0  0
  -29.2130   65.5080  -28.0090 C   0  0  0  0  0  0
  -29.9680   66.7290  -28.0200 N   0  0  0  0  0  0
  -19.6473   55.0198  -28.4293 H   0  0  0  0  0  0
  -19.0109   56.0101  -29.7861 H   0  0  0  0  0  0
  -20.7815   55.9099  -29.5007 H   0  0  0  0  0  0
  -20.4841   57.6805  -30.4973 H   0  0  0  0  0  0
  -20.5466   59.4674  -30.3246 H   0  0  0  0  0  0
  -21.7819   58.4432  -29.5172 H   0  0  0  0  0  0
  -20.0770   59.1057  -26.5750 H   0  0  0  0  0  0
  -19.3448   61.1018  -28.7404 H   0  0  0  0  0  0
  -19.7349   62.1278  -26.5757 H   0  0  0  0  0  0
  -18.0361   62.3430  -27.1183 H   0  0  0  0  0  0
  -18.4272   61.1333  -25.8493 H   0  0  0  0  0  0
  -17.8360   59.0453  -28.9285 H   0  0  0  0  0  0
  -17.3128   59.3218  -27.2325 H   0  0  0  0  0  0
  -16.9216   60.5314  -28.5015 H   0  0  0  0  0  0
  -24.3063   60.2361  -28.3099 H   0  0  0  0  0  0
  -25.6264   59.3407  -26.0675 H   0  0  0  0  0  0
  -25.0855   58.1249  -27.2741 H   0  0  0  0  0  0
  -22.0543   57.4692  -26.5671 H   0  0  0  0  0  0
  -21.6714   58.8631  -25.5007 H   0  0  0  0  0  0
  -25.0928   56.8676  -24.6132 H   0  0  0  0  0  0
  -23.3434   56.5599  -24.3455 H   0  0  0  0  0  0
  -24.0824   56.2101  -25.9449 H   0  0  0  0  0  0
  -23.8263   58.8709  -24.5920 H   0  0  0  0  0  0
  -24.4290   63.4045  -25.4309 H   0  0  0  0  0  0
  -25.7893   65.4501  -26.0154 H   0  0  0  0  0  0
  -25.0425   65.8817  -28.3374 H   0  0  0  0  0  0
  -24.7452   64.1275  -28.5842 H   0  0  0  0  0  0
  -23.7391   65.0538  -27.4195 H   0  0  0  0  0  0
  -25.6976   60.9482  -28.5689 H   0  0  0  0  0  0
  -26.5809   62.5073  -28.4437 H   0  0  0  0  0  0
  -26.8450   61.2242  -27.2146 H   0  0  0  0  0  0
  -25.8110   64.5909  -23.9368 H   0  0  0  0  0  0
  -27.6846   62.8474  -22.5826 H   0  0  0  0  0  0
  -26.8419   65.7198  -22.7501 H   0  0  0  0  0  0
  -28.5736   65.5754  -22.2951 H   0  0  0  0  0  0
  -28.1727   65.1106  -20.2949 H   0  0  0  0  0  0
  -26.7393   67.1460  -20.9040 H   0  0  0  0  0  0
  -25.3041   66.0703  -20.8056 H   0  0  0  0  0  0
  -26.3155   66.3541  -19.3484 H   0  0  0  0  0  0
  -27.3960   62.8987  -20.5326 H   0  0  0  0  0  0
  -26.7154   63.7838  -19.1254 H   0  0  0  0  0  0
  -25.7041   63.5000  -20.5826 H   0  0  0  0  0  0
  -30.9804   63.1202  -25.4695 H   0  0  0  0  0  0
  -33.2005   62.3316  -23.9932 H   0  0  0  0  0  0
  -31.9244   61.1951  -24.5470 H   0  0  0  0  0  0
  -29.5684   61.4096  -23.0515 H   0  0  0  0  0  0
  -29.6852   62.4658  -21.6033 H   0  0  0  0  0  0
  -33.0448   60.3903  -21.8001 H   0  0  0  0  0  0
  -31.5445   60.5087  -20.8194 H   0  0  0  0  0  0
  -31.4966   59.7479  -22.4460 H   0  0  0  0  0  0
  -32.1846   62.5818  -21.7818 H   0  0  0  0  0  0
  -30.2884   65.5788  -24.5475 H   0  0  0  0  0  0
  -32.6162   67.0712  -23.5854 H   0  0  0  0  0  0
  -30.2443   67.7635  -25.4313 H   0  0  0  0  0  0
  -31.3766   69.0008  -24.7881 H   0  0  0  0  0  0
  -29.8980   67.0673  -22.9808 H   0  0  0  0  0  0
  -31.8330   68.2536  -22.0272 H   0  0  0  0  0  0
  -31.0620   69.8245  -22.4329 H   0  0  0  0  0  0
  -30.2844   68.7221  -21.2467 H   0  0  0  0  0  0
  -28.2219   68.2711  -24.3779 H   0  0  0  0  0  0
  -28.1367   68.7332  -22.6442 H   0  0  0  0  0  0
  -28.9143   69.8355  -23.8304 H   0  0  0  0  0  0
  -33.8494   68.0271  -23.5477 H   0  0  0  0  0  0
  -35.5382   68.2929  -24.0989 H   0  0  0  0  0  0
  -34.2130   69.3258  -24.7341 H   0  0  0  0  0  0
  -34.4430   67.3989  -27.6260 H   0  0  0  0  0  0
  -36.8887   67.1572  -25.7413 H   0  0  0  0  0  0
  -35.2888   65.2561  -25.5019 H   0  0  0  0  0  0
  -35.4335   64.9335  -27.2631 H   0  0  0  0  0  0
  -36.8624   64.7339  -26.1930 H   0  0  0  0  0  0
  -37.5186   67.9507  -27.9767 H   0  0  0  0  0  0
  -38.1671   66.3095  -27.6412 H   0  0  0  0  0  0
  -36.7382   66.5092  -28.7113 H   0  0  0  0  0  0
  -34.4559   68.2817  -29.1879 H   0  0  0  0  0  0
  -33.3009   70.4331  -30.5773 H   0  0  0  0  0  0
  -35.0040   69.9064  -30.7984 H   0  0  0  0  0  0
  -33.8858   72.1701  -29.0881 H   0  0  0  0  0  0
  -35.3463   72.1600  -30.1338 H   0  0  0  0  0  0
  -35.6619   71.8719  -27.4831 H   0  0  0  0  0  0
  -36.5956   70.8163  -28.5969 H   0  0  0  0  0  0
  -32.8490   67.9960  -30.7209 H   0  0  0  0  0  0
  -31.8233   66.9684  -29.6633 H   0  0  0  0  0  0
  -31.0824   67.8778  -31.0237 H   0  0  0  0  0  0
  -30.5170   69.2098  -27.5684 H   0  0  0  0  0  0
  -28.6469   69.6547  -29.8532 H   0  0  0  0  0  0
  -30.0814   70.7304  -29.9611 H   0  0  0  0  0  0
  -29.3927   72.0385  -28.3814 H   0  0  0  0  0  0
  -27.4149   71.6968  -29.9089 H   0  0  0  0  0  0
  -26.7436   70.5331  -28.7166 H   0  0  0  0  0  0
  -26.9532   72.2594  -28.2667 H   0  0  0  0  0  0
  -29.8276   70.5280  -26.5481 H   0  0  0  0  0  0
  -28.3875   71.5640  -26.2665 H   0  0  0  0  0  0
  -28.1778   69.8377  -26.7163 H   0  0  0  0  0  0
  -29.0962   65.1771  -29.0515 H   0  0  0  0  0  0
  -29.7942   64.7600  -27.4498 H   0  0  0  0  0  0
  -30.8633   66.8278  -27.3886 H   0  0  0  0  0  0
  1  2  2  0  0  0
  1  3  1  0  0  0
  1  4  1  0  0  0
  3 80  1  0  0  0
  3 81  1  0  0  0
  3 82  1  0  0  0
  4  5  1  0  0  0
  4  6  1  0  0  0
  5 83  1  0  0  0
  5 84  1  0  0  0
  5 85  1  0  0  0
  6  7  1  0  0  0
  6 10  1  0  0  0
  6 86  1  0  0  0
  7  8  1  0  0  0
  7  9  1  0  0  0
  7 87  1  0  0  0
  8 88  1  0  0  0
  8 89  1  0  0  0
  8 90  1  0  0  0
  9 91  1  0  0  0
  9 92  1  0  0  0
  9 93  1  0  0  0
 10 11  2  0  0  0
 10 13  1  0  0  0
 12 14  2  0  0  0
 12 15  1  0  0  0
 12 20  1  0  0  0
 13 15  1  0  0  0
 13 17  1  0  0  0
 15 16  1  0  0  0
 15 94  1  0  0  0
 16 19  1  0  0  0
 16 95  1  0  0  0
 16 96  1  0  0  0
 17 19  1  0  0  0
 17 97  1  0  0  0
 17 98  1  0  0  0
 18 19  1  0  0  0
 18 99  1  0  0  0
 18100  1  0  0  0
 18101  1  0  0  0
 19102  1  0  0  0
 20 24  1  0  0  0
 20 27  1  0  0  0
 21 23  2  0  0  0
 22 25  1  0  0  0
 22 76  1  0  0  0
 23 24  1  0  0  0
 23 28  1  0  0  0
 24 25  1  0  0  0
 24103  1  0  0  0
 25 26  1  0  0  0
 25104  1  0  0  0
 26105  1  0  0  0
 26106  1  0  0  0
 26107  1  0  0  0
 27108  1  0  0  0
 27109  1  0  0  0
 27110  1  0  0  0
 28 29  1  0  0  0
 28111  1  0  0  0
 29 30  1  0  0  0
 29 34  1  0  0  0
 29112  1  0  0  0
 30 31  1  0  0  0
 30113  1  0  0  0
 30114  1  0  0  0
 31 32  1  0  0  0
 31 33  1  0  0  0
 31115  1  0  0  0
 32116  1  0  0  0
 32117  1  0  0  0
 32118  1  0  0  0
 33119  1  0  0  0
 33120  1  0  0  0
 33121  1  0  0  0
 34 35  2  0  0  0
 34 37  1  0  0  0
 36 38  2  0  0  0
 36 39  1  0  0  0
 36 44  1  0  0  0
 37 39  1  0  0  0
 37 41  1  0  0  0
 39 40  1  0  0  0
 39122  1  0  0  0
 40 43  1  0  0  0
 40123  1  0  0  0
 40124  1  0  0  0
 41 43  1  0  0  0
 41125  1  0  0  0
 41126  1  0  0  0
 42 43  1  0  0  0
 42127  1  0  0  0
 42128  1  0  0  0
 42129  1  0  0  0
 43130  1  0  0  0
 44 45  1  0  0  0
 44131  1  0  0  0
 45 46  1  0  0  0
 45 50  1  0  0  0
 45132  1  0  0  0
 46 47  1  0  0  0
 46133  1  0  0  0
 46134  1  0  0  0
 47 48  1  0  0  0
 47 49  1  0  0  0
 47135  1  0  0  0
 48136  1  0  0  0
 48137  1  0  0  0
 48138  1  0  0  0
 49139  1  0  0  0
 49140  1  0  0  0
 49141  1  0  0  0
 50 51  2  0  0  0
 50 52  1  0  0  0
 52 53  1  0  0  0
 52 54  1  0  0  0
 53142  1  0  0  0
 53143  1  0  0  0
 53144  1  0  0  0
 54 55  1  0  0  0
 54 58  1  0  0  0
 54145  1  0  0  0
 55 56  1  0  0  0
 55 57  1  0  0  0
 55146  1  0  0  0
 56147  1  0  0  0
 56148  1  0  0  0
 56149  1  0  0  0
 57150  1  0  0  0
 57151  1  0  0  0
 57152  1  0  0  0
 58 59  2  0  0  0
 58 66  1  0  0  0
 60 61  2  0  0  0
 60 62  1  0  0  0
 60 67  1  0  0  0
 62 63  1  0  0  0
 62 66  1  0  0  0
 62153  1  0  0  0
 63 64  1  0  0  0
 63154  1  0  0  0
 63155  1  0  0  0
 64 65  1  0  0  0
 64156  1  0  0  0
 64157  1  0  0  0
 65 66  1  0  0  0
 65158  1  0  0  0
 65159  1  0  0  0
 67 68  1  0  0  0
 67 69  1  0  0  0
 68160  1  0  0  0
 68161  1  0  0  0
 68162  1  0  0  0
 69 70  1  0  0  0
 69 72  1  0  0  0
 69163  1  0  0  0
 70 71  2  0  0  0
 70 79  1  0  0  0
 72 73  1  0  0  0
 72164  1  0  0  0
 72165  1  0  0  0
 73 74  1  0  0  0
 73 75  1  0  0  0
 73166  1  0  0  0
 74167  1  0  0  0
 74168  1  0  0  0
 74169  1  0  0  0
 75170  1  0  0  0
 75171  1  0  0  0
 75172  1  0  0  0
 76 77  2  0  0  0
 76 78  1  0  0  0
 78 79  1  0  0  0
 78173  1  0  0  0
 78174  1  0  0  0
 79175  1  0  0  0
M  END
> <s_m_source_file>
../5agu_ligand.sdf

> <i_m_source_file_index>
1

> <s_epik_input>
Tz1DKFtDSDNdKU4oW0NIM10pW0NAQEhdKFtDSF0oW0NIM10pW0NIM10pQyg9TylOMVtDQEBIXShbQ0gyXVtDQEhdKFtDSDJdMSlbQ0gzXSlDKD1PKU4oW0NIM10pW0NASF0oQyg9TylbTkhdW0NASF0oQzI9TylbQ0gyXVtDSF0oW0NIM10pW0NIM10pW0NAQEhdKFtDSDNdKU9DKD1PKVtDSDJdW05IXUMoPU8pW0NAQEhdKFtDSDJdW0NIXShbQ0gzXSlbQ0gzXSlOKFtDSDNdKUMoPU8pW0NASF0oW0NIMl1bQ0gyXVtDSDJdMylOM0MoPU8pW0NASF0oW0NIXShbQ0gzXSlbQ0gzXSlOKFtDSDNdKUMoPU8pW0NASF0oW0NIMl1bQ0hdKFtDSDNdKVtDSDNdKVtOSF1DKD1PKVtDQEBIXShOMjQpW0NIMl1bQ0BIXShbQ0gyXTQpW0NIM10=

> <s_epik_cmdline>
J2VwaWtfYXBwJywgJy1pbWFlJywgJ2xpZ2FuZF9wcm8ubWFlJywgJy1vbWFlJywgJ2xpZ2FuZF9wcmVwLm1hZScsICctbXMnLCAnMScsICctcGgnLCAnNycsICctcGh0JywgJzAuNScsICctbnQn

> <s_epik_pKa_notes>
Molecule size exceeds maximum supported for generating protonation states

> <s_epik_Chemistry_Notes>
This compound has an ester and may undergo hydrolysis at high or low pH.

$$$$
