5agv_ligand
                    3D
 Schrodinger Suite 2020-3.
191195  0  0  1  0            999 V2000
  -35.3540   38.8400   12.6840 C   0  0  0  0  0  0
  -34.1600   39.1140   12.5870 O   0  0  0  0  0  0
  -36.3790   39.4660   11.7860 C   0  0  0  0  0  0
  -35.8130   37.9600   13.5790 N   0  0  0  0  0  0
  -34.8440   37.2560   14.4240 C   0  0  2  0  0  0
  -35.0740   35.7740   14.3100 C   0  0  0  0  0  0
  -35.6510   35.1420   15.1900 O   0  0  0  0  0  0
  -35.0320   37.7540   15.8600 C   0  0  0  0  0  0
  -33.9740   37.1870   16.8000 C   0  0  0  0  0  0
  -35.0260   39.2810   15.9580 C   0  0  0  0  0  0
  -37.2220   37.6160   13.7490 C   0  0  0  0  0  0
  -34.6170   35.1900   13.1950 N   0  0  0  0  0  0
  -34.8650   33.7730   12.9270 C   0  0  2  0  0  0
  -34.1060   32.8900   13.8790 C   0  0  0  0  0  0
  -33.1050   33.3170   14.4430 O   0  0  0  0  0  0
  -34.2770   33.5590   11.5300 C   0  0  0  0  0  0
  -33.2140   34.6270   11.4070 C   0  0  2  0  0  0
  -33.8300   35.8220   12.1310 C   0  0  0  0  0  0
  -32.8610   34.9130    9.9480 C   0  0  0  0  0  0
  -34.5430   31.6420   14.0440 N   0  0  0  0  0  0
  -33.6920   30.7680   14.8870 C   0  0  2  0  0  0
  -32.8250   29.9010   14.0220 C   0  0  0  0  0  0
  -33.0640   29.8150   12.8290 O   0  0  0  0  0  0
  -34.4610   29.8770   15.8980 C   0  0  2  0  0  0
  -35.1470   28.8570   15.1750 O   0  0  0  0  0  0
  -35.4360   30.6500   16.7810 C   0  0  0  0  0  0
  -35.7620   31.1520   13.3860 C   0  0  0  0  0  0
  -31.7950   29.2650   14.6090 N   0  0  0  0  0  0
  -31.0570   28.2080   13.9370 C   0  0  2  0  0  0
  -32.0000   27.1360   13.4420 C   0  0  0  0  0  0
  -32.9480   26.8080   14.1270 O   0  0  0  0  0  0
  -30.0650   27.5400   14.8950 C   0  0  0  0  0  0
  -28.8920   28.4490   15.3100 C   0  0  0  0  0  0
  -28.1470   27.8030   16.4820 C   0  0  0  0  0  0
  -27.9310   28.7140   14.1450 C   0  0  0  0  0  0
  -31.7790   26.5480   12.2660 N   0  0  0  0  0  0
  -32.7320   25.5410   11.7810 C   0  0  2  0  0  0
  -32.5870   24.2220   12.5010 C   0  0  0  0  0  0
  -32.2960   23.1930   11.9150 O   0  0  0  0  0  0
  -32.3630   25.4230   10.3050 C   0  0  0  0  0  0
  -30.8870   25.7780   10.2200 C   0  0  2  0  0  0
  -30.6910   26.8240   11.3190 C   0  0  0  0  0  0
  -30.4980   26.2780    8.8270 C   0  0  0  0  0  0
  -32.7600   24.2420   13.8210 N   0  0  0  0  0  0
  -32.7520   23.0200   14.5960 C   0  0  2  0  0  0
  -34.0300   22.2700   14.3340 C   0  0  0  0  0  0
  -35.0770   22.9050   14.2640 O   0  0  0  0  0  0
  -32.7210   23.3550   16.0840 C   0  0  0  0  0  0
  -31.3950   23.9830   16.5060 C   0  0  0  0  0  0
  -30.3340   22.9010   16.6590 C   0  0  0  0  0  0
  -31.5930   24.7710   17.7960 C   0  0  0  0  0  0
  -33.9520   20.9470   14.2060 N   0  0  0  0  0  0
  -35.2080   20.2230   13.9990 C   0  0  2  0  0  0
  -35.4150   19.1470   15.0320 C   0  0  0  0  0  0
  -34.7880   18.1020   14.9390 O   0  0  0  0  0  0
  -35.1400   19.5570   12.6220 C   0  0  0  0  0  0
  -34.8130   20.5370   11.4990 C   0  0  0  0  0  0
  -36.4540   18.8390   12.3220 C   0  0  0  0  0  0
  -32.6890   20.2020   14.2690 C   0  0  0  0  0  0
  -36.2650   19.3560   16.0460 N   0  0  0  0  0  0
  -37.1680   20.5040   16.1310 C   0  0  2  0  0  0
  -36.4890   21.6740   16.7790 C   0  0  0  0  0  0
  -35.3670   21.5080   17.2250 O   0  0  0  0  0  0
  -38.2060   19.9870   17.1190 C   0  0  0  0  0  0
  -37.3980   19.1560   18.0930 C   0  0  1  0  0  0
  -38.2820   18.2110   18.9000 C   0  0  0  0  0  0
  -37.4270   17.2980   19.7660 C   0  0  0  0  0  0
  -38.2870   16.4530   20.7040 C   0  0  0  0  0  0
  -39.2050   17.3190   21.5550 C   0  0  0  0  0  0
  -40.0920   18.1650   20.6530 C   0  0  0  0  0  0
  -39.2140   19.0420   19.7710 C   0  0  0  0  0  0
  -36.4030   18.4480   17.1940 C   0  0  0  0  0  0
  -37.1340   22.8400   16.8810 N   0  0  0  0  0  0
  -36.5200   23.8930   17.6810 C   0  0  1  0  0  0
  -36.5970   25.1810   16.9250 C   0  0  0  0  0  0
  -37.1690   26.1510   17.3970 O   0  0  0  0  0  0
  -37.3380   24.0460   18.9670 C   0  0  0  0  0  0
  -37.2280   22.8380   19.8970 C   0  0  0  0  0  0
  -38.2390   22.9440   21.0370 C   0  0  0  0  0  0
  -35.8180   22.6470   20.4460 C   0  0  0  0  0  0
  -38.4060   23.1990   16.2530 C   0  0  0  0  0  0
  -34.5680   27.2860   16.7930 O   0  0  0  0  0  0
  -35.1660   27.5240   15.7490 C   0  0  0  0  0  0
  -35.9360   26.4580   14.9980 C   0  0  0  0  0  0
  -36.0100   25.2110   15.7320 N   0  0  0  0  0  0
  -35.8843   40.1672   11.0978 H   0  0  0  0  0  0
  -37.1171   40.0089   12.3947 H   0  0  0  0  0  0
  -36.8874   38.6811   11.2069 H   0  0  0  0  0  0
  -33.8222   37.4623   14.0726 H   0  0  0  0  0  0
  -36.0209   37.3891   16.1744 H   0  0  0  0  0  0
  -33.9745   36.0890   16.7330 H   0  0  0  0  0  0
  -34.1999   37.4915   17.8326 H   0  0  0  0  0  0
  -32.9843   37.5714   16.5126 H   0  0  0  0  0  0
  -35.7881   39.6948   15.2812 H   0  0  0  0  0  0
  -34.0350   39.6629   15.6716 H   0  0  0  0  0  0
  -35.2506   39.5829   16.9916 H   0  0  0  0  0  0
  -37.8318   38.2155   13.0572 H   0  0  0  0  0  0
  -37.5284   37.8262   14.7843 H   0  0  0  0  0  0
  -37.3670   36.5471   13.5336 H   0  0  0  0  0  0
  -35.9372   33.5579   13.0460 H   0  0  0  0  0  0
  -33.8539   32.5459   11.4615 H   0  0  0  0  0  0
  -35.0697   33.6770   10.7765 H   0  0  0  0  0  0
  -32.2529   34.3277   11.8506 H   0  0  0  0  0  0
  -34.4955   36.4123   11.4840 H   0  0  0  0  0  0
  -33.0727   36.4828   12.5782 H   0  0  0  0  0  0
  -32.4243   34.0117    9.4930 H   0  0  0  0  0  0
  -32.1333   35.7366    9.9015 H   0  0  0  0  0  0
  -33.7713   35.1965    9.3993 H   0  0  0  0  0  0
  -33.0804   31.4860   15.4531 H   0  0  0  0  0  0
  -33.7556   29.3677   16.5710 H   0  0  0  0  0  0
  -34.8918   31.4318   17.3310 H   0  0  0  0  0  0
  -35.9091   29.9605   17.4957 H   0  0  0  0  0  0
  -36.2101   31.1149   16.1528 H   0  0  0  0  0  0
  -36.2266   31.9713   12.8178 H   0  0  0  0  0  0
  -36.4678   30.7870   14.1467 H   0  0  0  0  0  0
  -35.5041   30.3309   12.7010 H   0  0  0  0  0  0
  -31.5165   29.5672   15.6293 H   0  0  0  0  0  0
  -30.5494   28.7112   13.1008 H   0  0  0  0  0  0
  -30.5883   27.2420   15.8155 H   0  0  0  0  0  0
  -29.6335   26.6498   14.4140 H   0  0  0  0  0  0
  -29.2952   29.4248   15.6186 H   0  0  0  0  0  0
  -28.8505   27.6202   17.3076 H   0  0  0  0  0  0
  -27.3473   28.4764   16.8240 H   0  0  0  0  0  0
  -27.7081   26.8485   16.1560 H   0  0  0  0  0  0
  -28.4820   29.1774   13.3133 H   0  0  0  0  0  0
  -27.4912   27.7634   13.8090 H   0  0  0  0  0  0
  -27.1304   29.3914   14.4770 H   0  0  0  0  0  0
  -33.7714   25.8457   11.9730 H   0  0  0  0  0  0
  -32.5473   24.3942    9.9621 H   0  0  0  0  0  0
  -32.9767   26.1210    9.7167 H   0  0  0  0  0  0
  -30.2345   24.9058   10.3731 H   0  0  0  0  0  0
  -30.7888   27.8510   10.9373 H   0  0  0  0  0  0
  -29.7232   26.7134   11.8300 H   0  0  0  0  0  0
  -30.6640   25.4778    8.0907 H   0  0  0  0  0  0
  -29.4361   26.5648    8.8237 H   0  0  0  0  0  0
  -31.1143   27.1507    8.5654 H   0  0  0  0  0  0
  -32.9109   25.2098   14.3216 H   0  0  0  0  0  0
  -31.8664   22.4505   14.2777 H   0  0  0  0  0  0
  -33.5259   24.0679   16.3162 H   0  0  0  0  0  0
  -32.8654   22.4353   16.6700 H   0  0  0  0  0  0
  -31.0441   24.6817   15.7323 H   0  0  0  0  0  0
  -30.2236   22.3587   15.7083 H   0  0  0  0  0  0
  -30.6381   22.1983   17.4488 H   0  0  0  0  0  0
  -29.3741   23.3646   16.9304 H   0  0  0  0  0  0
  -32.3650   25.5392   17.6416 H   0  0  0  0  0  0
  -30.6464   25.2543   18.0794 H   0  0  0  0  0  0
  -31.9104   24.0881   18.5978 H   0  0  0  0  0  0
  -36.0177   20.9609   14.0983 H   0  0  0  0  0  0
  -34.3145   18.8309   12.6580 H   0  0  0  0  0  0
  -33.8657   21.0491   11.7235 H   0  0  0  0  0  0
  -35.6200   21.2796   11.4138 H   0  0  0  0  0  0
  -34.7175   19.9887   10.5502 H   0  0  0  0  0  0
  -36.6814   18.1352   13.1362 H   0  0  0  0  0  0
  -36.3622   18.2869   11.3750 H   0  0  0  0  0  0
  -37.2648   19.5777   12.2387 H   0  0  0  0  0  0
  -31.8569   20.9037   14.4280 H   0  0  0  0  0  0
  -32.5358   19.6596   13.3244 H   0  0  0  0  0  0
  -32.7278   19.4844   15.1018 H   0  0  0  0  0  0
  -37.5166   20.8212   15.1371 H   0  0  0  0  0  0
  -38.7008   20.8380   17.6098 H   0  0  0  0  0  0
  -38.9556   19.3865   16.5827 H   0  0  0  0  0  0
  -36.8922   19.7525   18.8666 H   0  0  0  0  0  0
  -38.8724   17.5797   18.2196 H   0  0  0  0  0  0
  -36.8448   16.6219   19.1226 H   0  0  0  0  0  0
  -36.7413   17.9061   20.3743 H   0  0  0  0  0  0
  -38.9089   15.7656   20.1117 H   0  0  0  0  0  0
  -37.6365   15.8730   21.3751 H   0  0  0  0  0  0
  -39.8349   16.6752   22.1864 H   0  0  0  0  0  0
  -38.5989   17.9786   22.1934 H   0  0  0  0  0  0
  -40.7085   17.5067   20.0232 H   0  0  0  0  0  0
  -40.7454   18.7984   21.2709 H   0  0  0  0  0  0
  -38.6187   19.7003   20.4208 H   0  0  0  0  0  0
  -39.8673   19.6525   19.1304 H   0  0  0  0  0  0
  -36.7745   17.4724   16.8473 H   0  0  0  0  0  0
  -35.4237   18.3167   17.6774 H   0  0  0  0  0  0
  -35.4703   23.6231   17.8688 H   0  0  0  0  0  0
  -36.9853   24.9270   19.5232 H   0  0  0  0  0  0
  -38.4005   24.1741   18.7127 H   0  0  0  0  0  0
  -37.4574   21.9467   19.2946 H   0  0  0  0  0  0
  -39.2479   23.0811   20.6207 H   0  0  0  0  0  0
  -37.9849   23.8043   21.6736 H   0  0  0  0  0  0
  -38.2122   22.0228   21.6376 H   0  0  0  0  0  0
  -35.1062   22.5730   19.6106 H   0  0  0  0  0  0
  -35.7791   21.7244   21.0437 H   0  0  0  0  0  0
  -35.5518   23.5059   21.0796 H   0  0  0  0  0  0
  -38.7845   22.3425   15.6758 H   0  0  0  0  0  0
  -38.2538   24.0560   15.5804 H   0  0  0  0  0  0
  -39.1358   23.4683   17.0308 H   0  0  0  0  0  0
  -36.9632   26.8071   14.8164 H   0  0  0  0  0  0
  -35.4414   26.2575   14.0361 H   0  0  0  0  0  0
  -35.5816   24.2936   15.3022 H   0  0  0  0  0  0
  1  2  2  0  0  0
  1  3  1  0  0  0
  1  4  1  0  0  0
  3 86  1  0  0  0
  3 87  1  0  0  0
  3 88  1  0  0  0
  4  5  1  0  0  0
  4 11  1  0  0  0
  5  6  1  0  0  0
  5  8  1  0  0  0
  5 89  1  0  0  0
  6  7  2  0  0  0
  6 12  1  0  0  0
  8  9  1  0  0  0
  8 10  1  0  0  0
  8 90  1  0  0  0
  9 91  1  0  0  0
  9 92  1  0  0  0
  9 93  1  0  0  0
 10 94  1  0  0  0
 10 95  1  0  0  0
 10 96  1  0  0  0
 11 97  1  0  0  0
 11 98  1  0  0  0
 11 99  1  0  0  0
 12 13  1  0  0  0
 12 18  1  0  0  0
 13 14  1  0  0  0
 13 16  1  0  0  0
 13100  1  0  0  0
 14 15  2  0  0  0
 14 20  1  0  0  0
 16 17  1  0  0  0
 16101  1  0  0  0
 16102  1  0  0  0
 17 18  1  0  0  0
 17 19  1  0  0  0
 17103  1  0  0  0
 18104  1  0  0  0
 18105  1  0  0  0
 19106  1  0  0  0
 19107  1  0  0  0
 19108  1  0  0  0
 20 21  1  0  0  0
 20 27  1  0  0  0
 21 22  1  0  0  0
 21 24  1  0  0  0
 21109  1  0  0  0
 22 23  2  0  0  0
 22 28  1  0  0  0
 24 25  1  0  0  0
 24 26  1  0  0  0
 24110  1  0  0  0
 25 83  1  0  0  0
 26111  1  0  0  0
 26112  1  0  0  0
 26113  1  0  0  0
 27114  1  0  0  0
 27115  1  0  0  0
 27116  1  0  0  0
 28 29  1  0  0  0
 28117  1  0  0  0
 29 30  1  0  0  0
 29 32  1  0  0  0
 29118  1  0  0  0
 30 31  2  0  0  0
 30 36  1  0  0  0
 32 33  1  0  0  0
 32119  1  0  0  0
 32120  1  0  0  0
 33 34  1  0  0  0
 33 35  1  0  0  0
 33121  1  0  0  0
 34122  1  0  0  0
 34123  1  0  0  0
 34124  1  0  0  0
 35125  1  0  0  0
 35126  1  0  0  0
 35127  1  0  0  0
 36 37  1  0  0  0
 36 42  1  0  0  0
 37 38  1  0  0  0
 37 40  1  0  0  0
 37128  1  0  0  0
 38 39  2  0  0  0
 38 44  1  0  0  0
 40 41  1  0  0  0
 40129  1  0  0  0
 40130  1  0  0  0
 41 42  1  0  0  0
 41 43  1  0  0  0
 41131  1  0  0  0
 42132  1  0  0  0
 42133  1  0  0  0
 43134  1  0  0  0
 43135  1  0  0  0
 43136  1  0  0  0
 44 45  1  0  0  0
 44137  1  0  0  0
 45 46  1  0  0  0
 45 48  1  0  0  0
 45138  1  0  0  0
 46 47  2  0  0  0
 46 52  1  0  0  0
 48 49  1  0  0  0
 48139  1  0  0  0
 48140  1  0  0  0
 49 50  1  0  0  0
 49 51  1  0  0  0
 49141  1  0  0  0
 50142  1  0  0  0
 50143  1  0  0  0
 50144  1  0  0  0
 51145  1  0  0  0
 51146  1  0  0  0
 51147  1  0  0  0
 52 53  1  0  0  0
 52 59  1  0  0  0
 53 54  1  0  0  0
 53 56  1  0  0  0
 53148  1  0  0  0
 54 55  2  0  0  0
 54 60  1  0  0  0
 56 57  1  0  0  0
 56 58  1  0  0  0
 56149  1  0  0  0
 57150  1  0  0  0
 57151  1  0  0  0
 57152  1  0  0  0
 58153  1  0  0  0
 58154  1  0  0  0
 58155  1  0  0  0
 59156  1  0  0  0
 59157  1  0  0  0
 59158  1  0  0  0
 60 61  1  0  0  0
 60 72  1  0  0  0
 61 62  1  0  0  0
 61 64  1  0  0  0
 61159  1  0  0  0
 62 63  2  0  0  0
 62 73  1  0  0  0
 64 65  1  0  0  0
 64160  1  0  0  0
 64161  1  0  0  0
 65 66  1  0  0  0
 65 72  1  0  0  0
 65162  1  0  0  0
 66 67  1  0  0  0
 66 71  1  0  0  0
 66163  1  0  0  0
 67 68  1  0  0  0
 67164  1  0  0  0
 67165  1  0  0  0
 68 69  1  0  0  0
 68166  1  0  0  0
 68167  1  0  0  0
 69 70  1  0  0  0
 69168  1  0  0  0
 69169  1  0  0  0
 70 71  1  0  0  0
 70170  1  0  0  0
 70171  1  0  0  0
 71172  1  0  0  0
 71173  1  0  0  0
 72174  1  0  0  0
 72175  1  0  0  0
 73 74  1  0  0  0
 73 81  1  0  0  0
 74 75  1  0  0  0
 74 77  1  0  0  0
 74176  1  0  0  0
 75 76  2  0  0  0
 75 85  1  0  0  0
 77 78  1  0  0  0
 77177  1  0  0  0
 77178  1  0  0  0
 78 79  1  0  0  0
 78 80  1  0  0  0
 78179  1  0  0  0
 79180  1  0  0  0
 79181  1  0  0  0
 79182  1  0  0  0
 80183  1  0  0  0
 80184  1  0  0  0
 80185  1  0  0  0
 81186  1  0  0  0
 81187  1  0  0  0
 81188  1  0  0  0
 82 83  2  0  0  0
 83 84  1  0  0  0
 84 85  1  0  0  0
 84189  1  0  0  0
 84190  1  0  0  0
 85191  1  0  0  0
M  END
> <s_m_source_file>
../5agv_ligand.sdf

> <i_m_source_file_index>
1

> <s_epik_input>
Tz1DKFtDSDNdKU4oW0NIM10pW0NAQEhdKFtDSF0oW0NIM10pW0NIM10pQyg9TylOMVtDQEBIXShbQ0gyXVtDQEhdKFtDSDJdMSlbQ0gzXSlDKD1PKU4oW0NIM10pW0NASF0oQyg9TylbTkhdW0NASF0oQzI9TylbQ0gyXVtDSF0oW0NIM10pW0NIM10pW0NAQEhdKFtDSDNdKU9DKD1PKVtDSDJdW05IXUMoPU8pW0NAQEhdKFtDSDJdW0NIXShbQ0gzXSlbQ0gzXSlOKFtDSDNdKUMoPU8pW0NASF0oW0NIMl1bQ0BIXShbQ0gyXTMpW0NIXTRbQ0gyXVtDSDJdW0NIMl1bQ0gyXVtDSDJdNClOM0MoPU8pW0NASF0oW0NIXShbQ0gzXSlbQ0gzXSlOKFtDSDNdKUMoPU8pW0NASF0oW0NIMl1bQ0hdKFtDSDNdKVtDSDNdKVtOSF1DKD1PKVtDQEBIXShOMjUpW0NIMl1bQ0BIXShbQ0gyXTUpW0NIM10=

> <s_epik_cmdline>
J2VwaWtfYXBwJywgJy1pbWFlJywgJ2xpZ2FuZF9wcm8ubWFlJywgJy1vbWFlJywgJ2xpZ2FuZF9wcmVwLm1hZScsICctbXMnLCAnMScsICctcGgnLCAnNycsICctcGh0JywgJzAuNScsICctbnQn

> <s_epik_pKa_notes>
Molecule size exceeds maximum supported for generating protonation states

> <s_epik_Chemistry_Notes>
This compound has an ester and may undergo hydrolysis at high or low pH.

$$$$
