5ah2_ligand
                    3D
 Schrodinger Suite 2020-3.
176180  0  0  1  0            999 V2000
   -9.9350   19.9930  -29.2280 C   0  0  0  0  0  0
   -9.5850   19.0760  -29.9350 O   0  0  0  0  0  0
   -9.0610   20.4810  -28.1010 C   0  0  0  0  0  0
  -11.1920   20.5530  -29.4340 N   0  0  0  0  0  0
  -11.1830   21.9990  -29.1290 C   0  0  0  0  0  0
  -11.7580   20.1920  -30.7720 C   0  0  1  0  0  0
  -12.9300   19.1960  -30.5690 C   0  0  0  0  0  0
  -13.1460   18.8560  -29.0900 C   0  0  0  0  0  0
  -14.2670   19.4930  -31.2280 C   0  0  0  0  0  0
  -11.9840   21.4150  -31.6440 C   0  0  0  0  0  0
  -13.0440   22.0300  -31.6310 O   0  0  0  0  0  0
  -12.2530   22.4890  -34.4530 C   0  0  0  0  0  0
  -10.8910   21.8840  -32.3630 N   0  0  0  0  0  0
  -12.6140   21.3310  -34.6600 O   0  0  0  0  0  0
  -11.1030   22.7970  -33.5200 C   0  0  1  0  0  0
   -9.7770   22.7030  -34.2810 C   0  0  0  0  0  0
   -9.8690   20.8550  -32.7130 C   0  0  0  0  0  0
   -7.7100   21.2730  -34.0380 C   0  0  0  0  0  0
   -9.2390   21.3000  -34.0410 C   0  0  2  0  0  0
  -12.9370   23.5670  -35.0290 N   0  0  0  0  0  0
  -11.7930   23.8460  -37.6430 O   0  0  0  0  0  0
  -14.6070   25.4230  -36.6470 O   0  0  0  0  0  0
  -12.8810   23.2960  -37.5740 C   0  0  0  0  0  0
  -13.6720   23.2160  -36.2920 C   0  0  2  0  0  0
  -14.9500   24.0660  -36.4190 C   0  0  3  0  0  0
  -15.7430   24.0370  -35.1220 C   0  0  0  0  0  0
  -12.1830   24.8610  -35.0240 C   0  0  0  0  0  0
  -13.4530   22.7190  -38.6390 N   0  0  0  0  0  0
  -13.0770   23.0590  -40.0190 C   0  0  2  0  0  0
  -12.8930   24.5390  -40.2170 C   0  0  0  0  0  0
  -13.5600   25.3300  -39.5850 O   0  0  0  0  0  0
  -14.2080   22.6590  -40.9570 C   0  0  0  0  0  0
  -14.0110   21.3880  -41.7830 C   0  0  0  0  0  0
  -15.3140   20.5810  -41.8650 C   0  0  0  0  0  0
  -12.8260   20.5480  -41.3290 C   0  0  0  0  0  0
  -12.8040   27.2240  -41.8460 C   0  0  0  0  0  0
  -12.0330   25.0570  -41.1580 N   0  0  0  0  0  0
  -12.4520   27.8710  -42.8170 O   0  0  0  0  0  0
  -11.8080   26.5170  -40.9710 C   0  0  1  0  0  0
  -10.3900   26.7710  -41.4660 C   0  0  0  0  0  0
  -10.7190   24.4080  -41.2730 C   0  0  0  0  0  0
   -8.5200   25.2020  -42.2930 C   0  0  0  0  0  0
  -10.0160   25.4470  -42.1420 C   0  0  2  0  0  0
  -14.0800   27.0610  -41.5280 N   0  0  0  0  0  0
  -15.1100   27.7810  -42.2390 C   0  0  2  0  0  0
  -14.9750   29.2460  -41.9380 C   0  0  0  0  0  0
  -14.9510   29.6020  -40.7660 O   0  0  0  0  0  0
  -16.4660   27.2920  -41.7560 C   0  0  0  0  0  0
  -17.1570   26.3110  -42.6970 C   0  0  0  0  0  0
  -17.5000   25.0130  -41.9840 C   0  0  0  0  0  0
  -16.3630   26.0530  -43.9710 C   0  0  0  0  0  0
  -14.8440   30.1720  -42.9660 N   0  0  0  0  0  0
  -15.6680   29.8030  -44.1440 C   0  0  0  0  0  0
  -15.0740   31.5680  -42.4850 C   0  0  1  0  0  0
  -13.9160   32.3930  -43.0310 C   0  0  0  0  0  0
  -12.5810   31.7520  -42.6480 C   0  0  0  0  0  0
  -13.9890   33.8490  -42.5800 C   0  0  0  0  0  0
  -16.3680   32.1930  -42.9400 C   0  0  0  0  0  0
  -16.4480   32.7280  -44.0350 O   0  0  0  0  0  0
  -17.5090   32.1690  -42.1670 N   0  0  0  0  0  0
  -17.2800   32.3010  -40.7100 C   0  0  2  0  0  0
  -17.7300   31.0060  -40.1100 C   0  0  0  0  0  0
  -17.9800   30.0810  -40.8620 O   0  0  0  0  0  0
  -18.2150   33.4020  -40.2270 C   0  0  0  0  0  0
  -19.2260   33.5930  -41.3410 C   0  0  0  0  0  0
  -18.4570   33.2170  -42.5970 C   0  0  0  0  0  0
  -17.9230   30.8600  -38.7440 N   0  0  0  0  0  0
  -16.7350   31.2480  -37.9490 C   0  0  0  0  0  0
  -18.4190   29.4910  -38.4590 C   0  0  1  0  0  0
  -17.4140   28.5760  -37.8220 C   0  0  0  0  0  0
  -17.6730   28.0870  -36.7310 O   0  0  0  0  0  0
  -19.5570   29.6070  -37.4600 C   0  0  0  0  0  0
  -20.9150   29.6740  -38.1340 C   0  0  0  0  0  0
  -21.9510   30.0930  -37.0970 C   0  0  0  0  0  0
  -21.2880   28.3410  -38.7770 C   0  0  0  0  0  0
  -16.2850   28.2960  -38.4550 N   0  0  0  0  0  0
  -15.2410   27.6260  -37.7040 C   0  0  0  0  0  0
  -15.5390   26.1570  -37.4540 C   0  0  3  0  0  0
  -16.5150   25.5700  -37.9150 O   0  0  0  0  0  0
  -14.8310   25.4240  -36.7680 O   0  0  0  0  0  0
   -8.1146   19.9203  -28.1018 H   0  0  0  0  0  0
   -9.5781   20.3262  -27.1425 H   0  0  0  0  0  0
   -8.8525   21.5526  -28.2363 H   0  0  0  0  0  0
  -10.7510   22.1604  -28.1303 H   0  0  0  0  0  0
  -12.2130   22.3845  -29.1497 H   0  0  0  0  0  0
  -10.5782   22.5284  -29.8800 H   0  0  0  0  0  0
  -11.0071   19.6613  -31.3758 H   0  0  0  0  0  0
  -12.5800   18.3206  -31.1358 H   0  0  0  0  0  0
  -12.1760   18.6419  -28.6176 H   0  0  0  0  0  0
  -13.7967   17.9729  -29.0080 H   0  0  0  0  0  0
  -13.6204   19.7093  -28.5831 H   0  0  0  0  0  0
  -14.1069   19.7363  -32.2887 H   0  0  0  0  0  0
  -14.7427   20.3470  -30.7236 H   0  0  0  0  0  0
  -14.9190   18.6106  -31.1485 H   0  0  0  0  0  0
  -11.3929   23.7794  -33.1188 H   0  0  0  0  0  0
   -9.9559   22.8773  -35.3523 H   0  0  0  0  0  0
   -9.0795   23.4622  -33.8975 H   0  0  0  0  0  0
   -9.1121   20.8042  -31.9164 H   0  0  0  0  0  0
  -10.3568   19.8747  -32.8183 H   0  0  0  0  0  0
   -7.3355   21.6030  -35.0182 H   0  0  0  0  0  0
   -7.3618   20.2489  -33.8383 H   0  0  0  0  0  0
   -7.3329   21.9477  -33.2553 H   0  0  0  0  0  0
   -9.5075   20.6076  -34.8524 H   0  0  0  0  0  0
  -13.8798   22.1427  -36.1697 H   0  0  0  0  0  0
  -15.8713   22.9949  -34.7939 H   0  0  0  0  0  0
  -16.7301   24.4941  -35.2855 H   0  0  0  0  0  0
  -15.2013   24.6010  -34.3484 H   0  0  0  0  0  0
  -11.6939   24.9966  -34.0481 H   0  0  0  0  0  0
  -12.8805   25.6925  -35.2032 H   0  0  0  0  0  0
  -11.4208   24.8443  -35.8170 H   0  0  0  0  0  0
  -14.2313   21.9648  -38.4510 H   0  0  0  0  0  0
  -12.1292   22.5288  -40.1938 H   0  0  0  0  0  0
  -15.1260   22.4923  -40.3743 H   0  0  0  0  0  0
  -14.3790   23.4623  -41.6887 H   0  0  0  0  0  0
  -13.7433   21.7075  -42.8010 H   0  0  0  0  0  0
  -16.1317   21.2377  -42.1969 H   0  0  0  0  0  0
  -15.5535   20.1696  -40.8733 H   0  0  0  0  0  0
  -15.1905   19.7574  -42.5836 H   0  0  0  0  0  0
  -11.9245   21.1770  -41.2893 H   0  0  0  0  0  0
  -12.6670   19.7238  -42.0399 H   0  0  0  0  0  0
  -13.0300   20.1361  -40.3297 H   0  0  0  0  0  0
  -11.9396   26.8503  -39.9310 H   0  0  0  0  0  0
  -10.3930   27.6175  -42.1685 H   0  0  0  0  0  0
   -9.7397   27.0067  -40.6107 H   0  0  0  0  0  0
  -10.2830   24.2827  -40.2709 H   0  0  0  0  0  0
  -10.8370   23.4226  -41.7474 H   0  0  0  0  0  0
   -8.0824   25.9858  -42.9287 H   0  0  0  0  0  0
   -8.3545   24.2186  -42.7572 H   0  0  0  0  0  0
   -8.0429   25.2247  -41.3021 H   0  0  0  0  0  0
  -10.3325   25.4168  -43.1950 H   0  0  0  0  0  0
  -14.3521   26.3710  -40.7156 H   0  0  0  0  0  0
  -14.9726   27.5968  -43.3147 H   0  0  0  0  0  0
  -16.3480   26.7791  -40.7901 H   0  0  0  0  0  0
  -17.1435   28.1501  -41.6352 H   0  0  0  0  0  0
  -18.0988   26.7852  -43.0104 H   0  0  0  0  0  0
  -18.0717   25.2361  -41.0711 H   0  0  0  0  0  0
  -16.5725   24.4856  -41.7162 H   0  0  0  0  0  0
  -18.1040   24.3780  -42.6488 H   0  0  0  0  0  0
  -16.1326   27.0111  -44.4598 H   0  0  0  0  0  0
  -16.9572   25.4270  -44.6529 H   0  0  0  0  0  0
  -15.4258   25.5346  -43.7203 H   0  0  0  0  0  0
  -15.4442   28.7669  -44.4379 H   0  0  0  0  0  0
  -15.4363   30.4795  -44.9799 H   0  0  0  0  0  0
  -16.7341   29.8892  -43.8872 H   0  0  0  0  0  0
  -15.1436   31.5280  -41.3879 H   0  0  0  0  0  0
  -13.9987   32.4009  -44.1279 H   0  0  0  0  0  0
  -12.5654   30.7061  -42.9884 H   0  0  0  0  0  0
  -12.4591   31.7838  -41.5552 H   0  0  0  0  0  0
  -11.7585   32.3052  -43.1249 H   0  0  0  0  0  0
  -14.9602   34.2750  -42.8720 H   0  0  0  0  0  0
  -13.1794   34.4214  -43.0563 H   0  0  0  0  0  0
  -13.8800   33.9001  -41.4866 H   0  0  0  0  0  0
  -16.2286   32.5134  -40.4664 H   0  0  0  0  0  0
  -18.7018   33.0859  -39.2926 H   0  0  0  0  0  0
  -17.6375   34.3207  -40.0469 H   0  0  0  0  0  0
  -20.0899   32.9341  -41.1691 H   0  0  0  0  0  0
  -19.5612   34.6406  -41.3563 H   0  0  0  0  0  0
  -17.8979   34.0734  -43.0018 H   0  0  0  0  0  0
  -19.1224   32.8131  -43.3742 H   0  0  0  0  0  0
  -16.4318   32.2706  -38.2181 H   0  0  0  0  0  0
  -15.9092   30.5529  -38.1607 H   0  0  0  0  0  0
  -16.9819   31.2087  -36.8778 H   0  0  0  0  0  0
  -18.6833   29.0759  -39.4428 H   0  0  0  0  0  0
  -19.5514   28.7312  -36.7945 H   0  0  0  0  0  0
  -19.4290   30.5220  -36.8630 H   0  0  0  0  0  0
  -20.8763   30.4177  -38.9436 H   0  0  0  0  0  0
  -21.6560   31.0547  -36.6519 H   0  0  0  0  0  0
  -22.0117   29.3276  -36.3093 H   0  0  0  0  0  0
  -22.9328   30.1990  -37.5816 H   0  0  0  0  0  0
  -20.5241   28.0653  -39.5189 H   0  0  0  0  0  0
  -22.2649   28.4343  -39.2739 H   0  0  0  0  0  0
  -21.3438   27.5628  -38.0016 H   0  0  0  0  0  0
  -16.1234   28.5532  -39.5122 H   0  0  0  0  0  0
  -14.2938   27.6848  -38.2603 H   0  0  0  0  0  0
  -15.1224   28.1141  -36.7254 H   0  0  0  0  0  0
  -17.2330   26.1106  -38.5492 H   0  0  0  0  0  0
  1  2  2  0  0  0
  1  3  1  0  0  0
  1  4  1  0  0  0
  3 81  1  0  0  0
  3 82  1  0  0  0
  3 83  1  0  0  0
  4  5  1  0  0  0
  4  6  1  0  0  0
  5 84  1  0  0  0
  5 85  1  0  0  0
  5 86  1  0  0  0
  6  7  1  0  0  0
  6 10  1  0  0  0
  6 87  1  0  0  0
  7  8  1  0  0  0
  7  9  1  0  0  0
  7 88  1  0  0  0
  8 89  1  0  0  0
  8 90  1  0  0  0
  8 91  1  0  0  0
  9 92  1  0  0  0
  9 93  1  0  0  0
  9 94  1  0  0  0
 10 11  2  0  0  0
 10 13  1  0  0  0
 12 14  2  0  0  0
 12 15  1  0  0  0
 12 20  1  0  0  0
 13 15  1  0  0  0
 13 17  1  0  0  0
 15 16  1  0  0  0
 15 95  1  0  0  0
 16 19  1  0  0  0
 16 96  1  0  0  0
 16 97  1  0  0  0
 17 19  1  0  0  0
 17 98  1  0  0  0
 17 99  1  0  0  0
 18 19  1  0  0  0
 18100  1  0  0  0
 18101  1  0  0  0
 18102  1  0  0  0
 19103  1  0  0  0
 20 24  1  0  0  0
 20 27  1  0  0  0
 21 23  2  0  0  0
 22 25  1  0  0  0
 22 78  1  0  0  0
 23 24  1  0  0  0
 23 28  1  0  0  0
 24 25  1  0  0  0
 24104  1  0  0  0
 25 26  1  0  0  0
 25 80  1  0  0  0
 26105  1  0  0  0
 26106  1  0  0  0
 26107  1  0  0  0
 27108  1  0  0  0
 27109  1  0  0  0
 27110  1  0  0  0
 28 29  1  0  0  0
 28111  1  0  0  0
 29 30  1  0  0  0
 29 32  1  0  0  0
 29112  1  0  0  0
 30 31  2  0  0  0
 30 37  1  0  0  0
 32 33  1  0  0  0
 32113  1  0  0  0
 32114  1  0  0  0
 33 34  1  0  0  0
 33 35  1  0  0  0
 33115  1  0  0  0
 34116  1  0  0  0
 34117  1  0  0  0
 34118  1  0  0  0
 35119  1  0  0  0
 35120  1  0  0  0
 35121  1  0  0  0
 36 38  2  0  0  0
 36 39  1  0  0  0
 36 44  1  0  0  0
 37 39  1  0  0  0
 37 41  1  0  0  0
 39 40  1  0  0  0
 39122  1  0  0  0
 40 43  1  0  0  0
 40123  1  0  0  0
 40124  1  0  0  0
 41 43  1  0  0  0
 41125  1  0  0  0
 41126  1  0  0  0
 42 43  1  0  0  0
 42127  1  0  0  0
 42128  1  0  0  0
 42129  1  0  0  0
 43130  1  0  0  0
 44 45  1  0  0  0
 44131  1  0  0  0
 45 46  1  0  0  0
 45 48  1  0  0  0
 45132  1  0  0  0
 46 47  2  0  0  0
 46 52  1  0  0  0
 48 49  1  0  0  0
 48133  1  0  0  0
 48134  1  0  0  0
 49 50  1  0  0  0
 49 51  1  0  0  0
 49135  1  0  0  0
 50136  1  0  0  0
 50137  1  0  0  0
 50138  1  0  0  0
 51139  1  0  0  0
 51140  1  0  0  0
 51141  1  0  0  0
 52 53  1  0  0  0
 52 54  1  0  0  0
 53142  1  0  0  0
 53143  1  0  0  0
 53144  1  0  0  0
 54 55  1  0  0  0
 54 58  1  0  0  0
 54145  1  0  0  0
 55 56  1  0  0  0
 55 57  1  0  0  0
 55146  1  0  0  0
 56147  1  0  0  0
 56148  1  0  0  0
 56149  1  0  0  0
 57150  1  0  0  0
 57151  1  0  0  0
 57152  1  0  0  0
 58 59  2  0  0  0
 58 60  1  0  0  0
 60 61  1  0  0  0
 60 66  1  0  0  0
 61 62  1  0  0  0
 61 64  1  0  0  0
 61153  1  0  0  0
 62 63  2  0  0  0
 62 67  1  0  0  0
 64 65  1  0  0  0
 64154  1  0  0  0
 64155  1  0  0  0
 65 66  1  0  0  0
 65156  1  0  0  0
 65157  1  0  0  0
 66158  1  0  0  0
 66159  1  0  0  0
 67 68  1  0  0  0
 67 69  1  0  0  0
 68160  1  0  0  0
 68161  1  0  0  0
 68162  1  0  0  0
 69 70  1  0  0  0
 69 72  1  0  0  0
 69163  1  0  0  0
 70 71  2  0  0  0
 70 76  1  0  0  0
 72 73  1  0  0  0
 72164  1  0  0  0
 72165  1  0  0  0
 73 74  1  0  0  0
 73 75  1  0  0  0
 73166  1  0  0  0
 74167  1  0  0  0
 74168  1  0  0  0
 74169  1  0  0  0
 75170  1  0  0  0
 75171  1  0  0  0
 75172  1  0  0  0
 76 77  1  0  0  0
 76173  1  0  0  0
 77 78  1  0  0  0
 77174  1  0  0  0
 77175  1  0  0  0
 78 79  1  0  0  0
 78 80  1  0  0  0
 79176  1  0  0  0
M  END
> <s_m_source_file>
../5ah2_ligand.sdf

> <i_m_source_file_index>
1

> <s_epik_input>
Tz1DKFtDSDNdKU4oW0NIM10pW0NAQEhdKFtDSF0oW0NIM10pW0NIM10pQyg9TylOMVtDQEBIXShbQ0gyXVtDQEhdKFtDSDJdMSlbQ0gzXSlDKD1PKU4oW0NIM10pW0NAQEhdMkMoPU8pW05IXVtDQEBIXShbQ0gyXVtDSF0oW0NIM10pW0NIM10pQyg9TylOKFtDSDJdW0NAQEhdKFtDSDJdMylbQ0gzXSlbQ0BASF0zQyg9TylbTkhdW0NAQEhdKFtDSDJdW0NIXShbQ0gzXSlbQ0gzXSlDKD1PKU4oW0NIM10pW0NAQEhdKFtDSF0oW0NIM10pW0NIM10pQyg9TylOKFtDSDJdW0NIMl1bQ0gyXTQpW0NAQEhdNEMoPU8pTihbQ0gzXSlbQ0BIXShbQ0gyXVtDSF0oW0NIM10pW0NIM10pQyg9TylbTkhdW0NIMl1DKE81KShbT0hdKU9DMjVbQ0gzXQ==

> <s_epik_cmdline>
J2VwaWtfYXBwJywgJy1pbWFlJywgJ2xpZ2FuZF9wcm8ubWFlJywgJy1vbWFlJywgJ2xpZ2FuZF9wcmVwLm1hZScsICctbXMnLCAnMScsICctcGgnLCAnNycsICctcGh0JywgJzAuNScsICctbnQn

> <s_epik_pKa_notes>
Molecule size exceeds maximum supported for generating protonation states

$$$$
