5ahu_ligand
                    3D
 Schrodinger Suite 2020-3.
 44 44  0  0  1  0            999 V2000
   29.6660    8.2260   33.5610 C   0  0  0  0  0  0
   29.1120    8.5880   32.1910 C   0  0  0  0  0  0
   29.2910    7.4790   31.1720 C   0  0  0  0  0  0
   28.0840    6.5270   31.2190 C   0  0  0  0  0  0
   28.2820    5.2620   32.0570 C   0  0  0  0  0  0
   27.3980    4.1870   31.3280 C   0  0  0  0  0  0
   27.7610    2.7260   31.5940 C   0  0  0  0  0  0
   26.8020    1.8540   30.9610 N   0  3  0  0  0  0
   26.5830    0.5990   31.3040 C   0  0  0  0  0  0
   25.6190    0.0870   30.4880 C   0  0  0  0  0  0
   25.2670    1.0720   29.6420 N   0  0  0  0  0  0
   26.0030    2.1640   29.9100 C   0  0  0  0  0  0
   24.2600    1.0150   28.5610 C   0  0  0  0  0  0
   24.3870   -0.2460   27.6580 C   0  0  2  0  0  0
   25.9790   -0.4710   26.8240 P   0  0  0  0  0  0
   26.3110    0.7350   25.9340 O   0  0  0  0  0  0
   25.8550   -1.7720   25.9910 O   0  5  0  0  0  0
   26.9770   -0.7640   27.9600 O   0  5  0  0  0  0
   23.0300   -0.0660   26.4850 P   0  0  0  0  0  0
   23.1980    1.1830   25.6260 O   0  5  0  0  0  0
   21.7970   -0.1710   27.4090 O   0  0  0  0  0  0
   23.0380   -1.2810   25.5730 O   0  0  0  0  0  0
   29.5077    9.0655   34.2540 H   0  0  0  0  0  0
   30.7428    8.0174   33.4776 H   0  0  0  0  0  0
   29.1480    7.3334   33.9418 H   0  0  0  0  0  0
   28.0352    8.7966   32.2744 H   0  0  0  0  0  0
   29.6300    9.4806   31.8102 H   0  0  0  0  0  0
   29.3706    7.9153   30.1654 H   0  0  0  0  0  0
   30.2075    6.9153   31.4007 H   0  0  0  0  0  0
   27.2184    7.0533   31.6476 H   0  0  0  0  0  0
   27.8415    6.1918   30.1998 H   0  0  0  0  0  0
   29.3477    4.9894   32.0633 H   0  0  0  0  0  0
   27.9451    5.4483   33.0874 H   0  0  0  0  0  0
   26.3494    4.3020   31.6398 H   0  0  0  0  0  0
   27.4742    4.3265   30.2395 H   0  0  0  0  0  0
   28.7618    2.5171   31.1882 H   0  0  0  0  0  0
   27.7585    2.5391   32.6780 H   0  0  0  0  0  0
   27.0887    0.0614   32.1061 H   0  0  0  0  0  0
   25.2123   -0.9239   30.5155 H   0  0  0  0  0  0
   25.9650    3.1174   29.3830 H   0  0  0  0  0  0
   23.2513    1.0048   28.9997 H   0  0  0  0  0  0
   24.3686    1.8964   27.9118 H   0  0  0  0  0  0
   24.3148   -1.0587   28.3958 H   0  0  0  0  0  0
   21.5997    0.6137   28.1542 H   0  0  0  0  0  0
  1  2  1  0  0  0
  1 23  1  0  0  0
  1 24  1  0  0  0
  1 25  1  0  0  0
  2  3  1  0  0  0
  2 26  1  0  0  0
  2 27  1  0  0  0
  3  4  1  0  0  0
  3 28  1  0  0  0
  3 29  1  0  0  0
  4  5  1  0  0  0
  4 30  1  0  0  0
  4 31  1  0  0  0
  5  6  1  0  0  0
  5 32  1  0  0  0
  5 33  1  0  0  0
  6  7  1  0  0  0
  6 34  1  0  0  0
  6 35  1  0  0  0
  7  8  1  0  0  0
  7 36  1  0  0  0
  7 37  1  0  0  0
  8  9  1  0  0  0
  8 12  2  0  0  0
  9 10  2  0  0  0
  9 38  1  0  0  0
 10 11  1  0  0  0
 10 39  1  0  0  0
 11 12  1  0  0  0
 11 13  1  0  0  0
 12 40  1  0  0  0
 13 14  1  0  0  0
 13 41  1  0  0  0
 13 42  1  0  0  0
 14 15  1  0  0  0
 14 19  1  0  0  0
 14 43  1  0  0  0
 15 16  2  0  0  0
 15 17  1  0  0  0
 15 18  1  0  0  0
 19 20  1  0  0  0
 19 21  1  0  0  0
 19 22  2  0  0  0
 21 44  1  0  0  0
M  CHG  4   8   1  17  -1  18  -1  20  -1
M  END
> <s_m_source_file>
../5ahu_ligand.sdf

> <i_m_source_file_index>
1

> <s_epik_input>
W0NIM11bQ0gyXVtDSDJdW0NIMl1bQ0gyXVtDSDJdW0NIMl1bbitdMVtjSF1bY0hdbihbY0hdMSlbQ0gyXVtDSF0oUCg9TykoW09IXSlbT0hdKVAoPU8pKFtPSF0pW09IXQ==

> <s_epik_cmdline>
J2VwaWtfYXBwJywgJy1pbWFlJywgJ2xpZ2FuZF9wcm8ubWFlJywgJy1vbWFlJywgJ2xpZ2FuZF9wcmVwLm1hZScsICctbXMnLCAnMScsICctcGgnLCAnNycsICctcGh0JywgJzAuNScsICctbnQn

> <r_lp_tautomer_probability>
1

> <r_epik_Ionization_Penalty>
  0.1830

> <r_epik_Ionization_Penalty_Charging>
  0.1829

> <r_epik_Ionization_Penalty_Neutral>
  0.0000

> <r_epik_State_Penalty>
  0.1724

> <r_epik_Charging_Adjusted_Penalty>
0.355366122329017

> <i_epik_Tot_Q>
-2

> <i_epik_Tot_abs_Q>
4

$$$$
