5ai0_ligand
                    3D
 Schrodinger Suite 2020-3.
 19 20  0  0  1  0            999 V2000
   13.3810   14.5180   27.4710 C   0  0  0  0  0  0
   12.3990   14.4430   28.5050 C   0  0  0  0  0  0
   13.6290   13.4070   26.6450 C   0  0  0  0  0  0
   11.6770   13.2690   28.6580 C   0  0  0  0  0  0
   12.8990   12.2240   26.8050 C   0  0  0  0  0  0
   11.9120   12.1550   27.8410 C   0  0  0  0  0  0
   11.1430   10.9480   28.0820 C   0  0  0  0  0  0
   11.6770    9.6030   28.2800 C   0  0  0  0  0  0
    9.7770   10.9230   28.1550 N   0  0  0  0  0  0
   10.6110    8.7880   28.4700 N   0  0  0  0  0  0
   13.0300    9.2580   28.2600 N   0  0  0  0  0  0
    9.4720    9.5970   28.3840 O   0  0  0  0  0  0
   13.9412   15.4409   27.3211 H   0  0  0  0  0  0
   12.2201   15.2937   29.1625 H   0  0  0  0  0  0
   14.3965   13.4680   25.8735 H   0  0  0  0  0  0
   10.9101   13.2115   29.4305 H   0  0  0  0  0  0
   13.0783   11.3695   26.1525 H   0  0  0  0  0  0
   13.7928   10.0329   28.0933 H   0  0  0  0  0  0
   13.3330    8.2114   28.4109 H   0  0  0  0  0  0
  1  2  2  0  0  0
  1  3  1  0  0  0
  1 13  1  0  0  0
  2  4  1  0  0  0
  2 14  1  0  0  0
  3  5  2  0  0  0
  3 15  1  0  0  0
  4  6  2  0  0  0
  4 16  1  0  0  0
  5  6  1  0  0  0
  5 17  1  0  0  0
  6  7  1  0  0  0
  7  8  1  0  0  0
  7  9  2  0  0  0
  8 10  2  0  0  0
  8 11  1  0  0  0
  9 12  1  0  0  0
 10 12  1  0  0  0
 11 18  1  0  0  0
 11 19  1  0  0  0
M  END
> <s_m_source_file>
../5ai0_ligand.sdf

> <i_m_source_file_index>
1

> <s_epik_input>
W2NIXTFbY0hdW2NIXVtjSF1bY0hdYzEtYzJjKFtOSDJdKW5vbjI=

> <s_epik_cmdline>
J2VwaWtfYXBwJywgJy1pbWFlJywgJ2xpZ2FuZF9wcm8ubWFlJywgJy1vbWFlJywgJ2xpZ2FuZF9wcmVwLm1hZScsICctbXMnLCAnMScsICctcGgnLCAnNycsICctcGh0JywgJzAuNScsICctbnQn

> <r_lp_tautomer_probability>
1

> <r_epik_Ionization_Penalty>
  0.0000

> <r_epik_Ionization_Penalty_Charging>
  0.0000

> <r_epik_Ionization_Penalty_Neutral>
  0.0000

> <r_epik_State_Penalty>
 -0.0000

> <r_epik_Charging_Adjusted_Penalty>
0

> <i_epik_Tot_Q>
0

> <i_epik_Tot_abs_Q>
0

$$$$
