5ai1_ligand
                    3D
 Schrodinger Suite 2020-3.
 36 39  0  0  1  0            999 V2000
    4.4080   11.5600   -4.1220 C   0  0  0  0  0  0
    4.4180   10.7020   -5.2380 C   0  0  0  0  0  0
    3.9490   11.1780   -6.4650 C   0  0  0  0  0  0
    3.4770   12.5150   -6.5790 C   0  0  0  0  0  0
    3.4740   13.3610   -5.4640 C   0  0  0  0  0  0
    3.9380   12.8810   -4.2360 C   0  0  0  0  0  0
    3.9510   10.2940   -7.6760 C   0  0  0  0  0  0
    3.4730   10.7930   -8.9430 C   0  0  0  0  0  0
    3.0010   12.1010   -9.0830 C   0  0  0  0  0  0
    2.9970   13.0070   -7.8040 C   0  0  0  0  0  0
    2.6770   12.5090   -9.9070 C   0  0  1  0  0  0
    2.9640   13.6660  -10.1970 C   0  0  2  0  0  0
    2.4240   14.7010   -9.1970 C   0  0  0  0  0  0
    2.4990   14.3810   -8.0290 C   0  0  0  0  0  0
    2.7820   11.8040  -11.1130 C   0  0  0  0  0  0
    2.4310   12.7180  -12.1660 C   0  0  0  0  0  0
    2.4480   13.8620  -11.6450 C   0  0  0  0  0  0
    4.4920   13.8770  -10.3840 C   0  0  0  0  0  0
    4.8690   11.1400   -2.8580 O   0  0  0  0  0  0
    2.1490   14.9240  -12.1790 O   0  0  0  0  0  0
    4.7866    9.6803   -5.1461 H   0  0  0  0  0  0
    3.1128   14.3856   -5.5526 H   0  0  0  0  0  0
    3.9357   13.5332   -3.3627 H   0  0  0  0  0  0
    4.3152    9.2695   -7.5991 H   0  0  0  0  0  0
    3.4803   10.1341   -9.8113 H   0  0  0  0  0  0
    1.8757   12.4598   -9.1550 H   0  0  0  0  0  0
    1.9921   15.6740   -9.4741 H   0  0  0  0  0  0
    2.2075   15.0939   -7.2436 H   0  0  0  0  0  0
    3.8138   11.4440  -11.2386 H   0  0  0  0  0  0
    2.0937   10.9461  -11.0974 H   0  0  0  0  0  0
    3.1663   12.6390  -12.9803 H   0  0  0  0  0  0
    1.4307   12.4686  -12.5497 H   0  0  0  0  0  0
    4.9990   13.7645   -9.4143 H   0  0  0  0  0  0
    4.6770   14.8866  -10.7796 H   0  0  0  0  0  0
    4.8816   13.1292  -11.0904 H   0  0  0  0  0  0
    5.2455   10.1154   -2.7225 H   0  0  0  0  0  0
  1  2  2  0  0  0
  1  6  1  0  0  0
  1 19  1  0  0  0
  2  3  1  0  0  0
  2 21  1  0  0  0
  3  4  2  0  0  0
  3  7  1  0  0  0
  4  5  1  0  0  0
  4 10  1  0  0  0
  5  6  2  0  0  0
  5 22  1  0  0  0
  6 23  1  0  0  0
  7  8  2  0  0  0
  7 24  1  0  0  0
  8  9  1  0  0  0
  8 25  1  0  0  0
  9 10  2  0  0  0
  9 11  1  0  0  0
 10 14  1  0  0  0
 11 12  1  0  0  0
 11 15  1  0  0  0
 11 26  1  0  0  0
 12 13  1  0  0  0
 12 17  1  0  0  0
 12 18  1  0  0  0
 13 14  2  0  0  0
 13 27  1  0  0  0
 14 28  1  0  0  0
 15 16  1  0  0  0
 15 29  1  0  0  0
 15 30  1  0  0  0
 16 17  1  0  0  0
 16 31  1  0  0  0
 16 32  1  0  0  0
 17 20  2  0  0  0
 18 33  1  0  0  0
 18 34  1  0  0  0
 18 35  1  0  0  0
 19 36  1  0  0  0
M  END
> <s_m_source_file>
../5ai1_ligand.sdf

> <i_m_source_file_index>
1

> <s_epik_input>
W2NIXTFbY0hdYyhbT0hdKVtjSF1jKFtjSF1bY0hdMiljMWMoW0NIXT1bQ0hdMyljMltDQEBIXShbQ0BdMzRbQ0gzXSlbQ0gyXVtDSDJdQzQ9Tw==

> <s_epik_cmdline>
J2VwaWtfYXBwJywgJy1pbWFlJywgJ2xpZ2FuZF9wcm8ubWFlJywgJy1vbWFlJywgJ2xpZ2FuZF9wcmVwLm1hZScsICctbXMnLCAnMScsICctcGgnLCAnNycsICctcGh0JywgJzAuNScsICctbnQn

> <r_lp_tautomer_probability>
1

> <r_epik_Ionization_Penalty>
  0.0011

> <r_epik_Ionization_Penalty_Charging>
  0.0000

> <r_epik_Ionization_Penalty_Neutral>
  0.0011

> <r_epik_State_Penalty>
 -0.0000

> <r_epik_Charging_Adjusted_Penalty>
0

> <i_epik_Tot_Q>
0

> <i_epik_Tot_abs_Q>
0

$$$$
