5ai4_ligand
                    3D
 Schrodinger Suite 2020-3.
 23 23  0  0  1  0            999 V2000
   14.0940   13.7040   18.6140 C   0  0  0  0  0  0
   13.9870   12.2560   18.5730 N   0  0  0  0  0  0
   15.3390   11.9020   18.3180 C   0  0  0  0  0  0
   15.2240   11.0350   17.2420 C   0  0  0  0  0  0
   16.5510   10.7380   17.0180 O   0  0  0  0  0  0
   13.6670   11.6810   19.8430 C   0  0  0  0  0  0
   13.1310   12.4890   20.9590 C   0  0  0  0  0  0
   12.8660   11.8610   22.2100 C   0  0  0  0  0  0
   13.1170   10.4780   22.3130 C   0  0  0  0  0  0
   13.6110    9.7240   21.2260 C   0  0  0  0  0  0
   13.8770   10.2900   20.0120 N   0  0  0  0  0  0
   12.7780    9.5410   23.8860 Br  0  0  0  0  0  0
   14.3407   14.0820   17.6109 H   0  0  0  0  0  0
   14.8865   13.9932   19.3199 H   0  0  0  0  0  0
   13.1359   14.1333   18.9423 H   0  0  0  0  0  0
   15.9159   12.8072   18.0773 H   0  0  0  0  0  0
   15.7666   11.4211   19.2101 H   0  0  0  0  0  0
   14.6181   10.1650   17.5353 H   0  0  0  0  0  0
   14.7379   11.5543   16.4030 H   0  0  0  0  0  0
   16.8314   10.0516   16.2055 H   0  0  0  0  0  0
   12.9406   13.5540   20.8261 H   0  0  0  0  0  0
   12.4828   12.4298   23.0572 H   0  0  0  0  0  0
   13.7855    8.6565   21.3602 H   0  0  0  0  0  0
  1  2  1  0  0  0
  1 13  1  0  0  0
  1 14  1  0  0  0
  1 15  1  0  0  0
  2  3  1  0  0  0
  2  6  1  0  0  0
  3  4  1  0  0  0
  3 16  1  0  0  0
  3 17  1  0  0  0
  4  5  1  0  0  0
  4 18  1  0  0  0
  4 19  1  0  0  0
  5 20  1  0  0  0
  6  7  2  0  0  0
  6 11  1  0  0  0
  7  8  1  0  0  0
  7 21  1  0  0  0
  8  9  2  0  0  0
  8 22  1  0  0  0
  9 10  1  0  0  0
  9 12  1  0  0  0
 10 11  2  0  0  0
 10 23  1  0  0  0
M  END
> <s_m_source_file>
../5ai4_ligand.sdf

> <i_m_source_file_index>
1

> <s_epik_input>
W09IXVtDSDJdW0NIMl1OKFtDSDNdKWMxW2NIXVtjSF1jKEJyKVtjSF1uMQ==

> <s_epik_cmdline>
J2VwaWtfYXBwJywgJy1pbWFlJywgJ2xpZ2FuZF9wcm8ubWFlJywgJy1vbWFlJywgJ2xpZ2FuZF9wcmVwLm1hZScsICctbXMnLCAnMScsICctcGgnLCAnNycsICctcGh0JywgJzAuNScsICctbnQn

> <r_lp_tautomer_probability>
1

> <r_epik_Ionization_Penalty>
  0.0060

> <r_epik_Ionization_Penalty_Charging>
  0.0000

> <r_epik_Ionization_Penalty_Neutral>
  0.0060

> <r_epik_State_Penalty>
 -0.0000

> <r_epik_Charging_Adjusted_Penalty>
0

> <i_epik_Tot_Q>
0

> <i_epik_Tot_abs_Q>
0

$$$$
