5ai5_ligand
                    3D
 Schrodinger Suite 2020-3.
 40 41  0  0  1  0            999 V2000
  -17.0290  -11.2950   14.8250 N   0  0  0  0  0  0
  -16.6920  -11.0570   16.1150 C   0  0  0  0  0  0
  -15.7930  -11.8840   16.6980 N   0  0  0  0  0  0
  -17.1760  -10.1220   16.7300 O   0  0  0  0  0  0
  -17.9680  -10.4600   14.0620 C   0  0  0  0  0  0
  -17.1840   -9.5330   13.1110 C   0  0  0  0  0  0
  -18.0030   -9.0880   11.8780 C   0  0  0  0  0  0
  -19.5420   -9.1310   12.0870 C   0  0  0  0  0  0
  -20.0670  -10.4760   12.6530 C   0  0  0  0  0  0
  -18.9430  -11.3310   13.2600 C   0  0  0  0  0  0
  -15.3400  -11.7390   18.0890 C   0  0  0  0  0  0
  -14.8260  -13.0920   18.6210 C   0  0  0  0  0  0
  -14.4470  -12.9450   20.1070 C   0  0  0  0  0  0
  -13.3830  -11.8520   20.3030 C   0  0  0  0  0  0
  -13.7760  -10.5050   19.6510 C   0  0  0  0  0  0
  -14.2300  -10.6730   18.1860 C   0  0  0  0  0  0
  -16.5579  -12.1680   14.3496 H   0  0  0  0  0  0
  -15.3980  -12.6985   16.0730 H   0  0  0  0  0  0
  -18.5296   -9.8751   14.8053 H   0  0  0  0  0  0
  -16.8802   -8.6248   13.6522 H   0  0  0  0  0  0
  -16.2896  -10.0570   12.7430 H   0  0  0  0  0  0
  -17.7412   -8.0516   11.6185 H   0  0  0  0  0  0
  -17.7740   -9.7477   11.0281 H   0  0  0  0  0  0
  -19.8378   -8.3440   12.7963 H   0  0  0  0  0  0
  -20.0476   -8.9658   11.1241 H   0  0  0  0  0  0
  -20.8081  -10.2777   13.4413 H   0  0  0  0  0  0
  -20.5374  -11.0553   11.8448 H   0  0  0  0  0  0
  -18.4008  -11.8336   12.4455 H   0  0  0  0  0  0
  -19.3907  -12.0860   13.9230 H   0  0  0  0  0  0
  -16.2208  -11.4140   18.6622 H   0  0  0  0  0  0
  -15.6152  -13.8510   18.5159 H   0  0  0  0  0  0
  -13.9415  -13.4006   18.0445 H   0  0  0  0  0  0
  -15.3406  -12.6735   20.6882 H   0  0  0  0  0  0
  -14.0436  -13.8985   20.4786 H   0  0  0  0  0  0
  -13.2349  -11.6731   21.3782 H   0  0  0  0  0  0
  -12.4345  -12.1784   19.8516 H   0  0  0  0  0  0
  -14.6055  -10.0531   20.2146 H   0  0  0  0  0  0
  -12.9111   -9.8254   19.6634 H   0  0  0  0  0  0
  -13.3688  -10.9840   17.5764 H   0  0  0  0  0  0
  -14.6127   -9.7104   17.8159 H   0  0  0  0  0  0
  1  2  1  0  0  0
  1  5  1  0  0  0
  1 17  1  0  0  0
  2  3  1  0  0  0
  2  4  2  0  0  0
  3 11  1  0  0  0
  3 18  1  0  0  0
  5  6  1  0  0  0
  5 10  1  0  0  0
  5 19  1  0  0  0
  6  7  1  0  0  0
  6 20  1  0  0  0
  6 21  1  0  0  0
  7  8  1  0  0  0
  7 22  1  0  0  0
  7 23  1  0  0  0
  8  9  1  0  0  0
  8 24  1  0  0  0
  8 25  1  0  0  0
  9 10  1  0  0  0
  9 26  1  0  0  0
  9 27  1  0  0  0
 10 28  1  0  0  0
 10 29  1  0  0  0
 11 12  1  0  0  0
 11 16  1  0  0  0
 11 30  1  0  0  0
 12 13  1  0  0  0
 12 31  1  0  0  0
 12 32  1  0  0  0
 13 14  1  0  0  0
 13 33  1  0  0  0
 13 34  1  0  0  0
 14 15  1  0  0  0
 14 35  1  0  0  0
 14 36  1  0  0  0
 15 16  1  0  0  0
 15 37  1  0  0  0
 15 38  1  0  0  0
 16 39  1  0  0  0
 16 40  1  0  0  0
M  END
> <s_m_source_file>
../5ai5_ligand.sdf

> <i_m_source_file_index>
1

> <s_epik_input>
W0NIMl0xW0NIMl1bQ0gyXVtDSDJdW0NIMl1bQ0hdMVtOSF1DKD1PKVtOSF1bQ0hdMltDSDJdW0NIMl1bQ0gyXVtDSDJdW0NIMl0y

> <s_epik_cmdline>
J2VwaWtfYXBwJywgJy1pbWFlJywgJ2xpZ2FuZF9wcm8ubWFlJywgJy1vbWFlJywgJ2xpZ2FuZF9wcmVwLm1hZScsICctbXMnLCAnMScsICctcGgnLCAnNycsICctcGh0JywgJzAuNScsICctbnQn

> <r_lp_tautomer_probability>
1

> <r_epik_Ionization_Penalty>
  0.0001

> <r_epik_Ionization_Penalty_Charging>
  0.0000

> <r_epik_Ionization_Penalty_Neutral>
  0.0001

> <r_epik_State_Penalty>
 -0.0000

> <r_epik_Charging_Adjusted_Penalty>
0

> <i_epik_Tot_Q>
0

> <i_epik_Tot_abs_Q>
0

$$$$
