5ai8_ligand
                    3D
 Schrodinger Suite 2020-3.
 19 20  0  0  1  0            999 V2000
   18.6560  -10.4190  -13.7310 C   0  0  0  0  0  0
   17.8270  -10.1870  -12.5190 C   0  0  0  0  0  0
   16.4570  -10.3030  -12.5950 C   0  0  0  0  0  0
   15.6330  -10.1000  -11.5110 C   0  0  0  0  0  0
   16.2480   -9.7720  -10.3120 C   0  0  0  0  0  0
   17.6300   -9.6540  -10.2560 C   0  0  0  0  0  0
   18.4560   -9.8520  -11.3410 C   0  0  0  0  0  0
   18.0890   -9.2390   -8.6560 S   0  0  0  0  0  0
   16.4410   -9.2500   -8.1620 C   0  0  0  0  0  0
   15.5960   -9.5390   -9.1270 N   0  0  0  0  0  0
   16.0970   -8.9650   -6.8880 N   0  0  0  0  0  0
   18.0030  -10.6753  -14.5783 H   0  0  0  0  0  0
   19.3556  -11.2469  -13.5437 H   0  0  0  0  0  0
   19.2228   -9.5065  -13.9677 H   0  0  0  0  0  0
   16.0067  -10.5662  -13.5521 H   0  0  0  0  0  0
   14.5499  -10.1926  -11.5912 H   0  0  0  0  0  0
   19.5389   -9.7499  -11.2711 H   0  0  0  0  0  0
   16.8760   -8.7343   -6.1464 H   0  0  0  0  0  0
   15.0377   -8.9635   -6.5915 H   0  0  0  0  0  0
  1  2  1  0  0  0
  1 12  1  0  0  0
  1 13  1  0  0  0
  1 14  1  0  0  0
  2  3  2  0  0  0
  2  7  1  0  0  0
  3  4  1  0  0  0
  3 15  1  0  0  0
  4  5  2  0  0  0
  4 16  1  0  0  0
  5  6  1  0  0  0
  5 10  1  0  0  0
  6  7  2  0  0  0
  6  8  1  0  0  0
  7 17  1  0  0  0
  8  9  1  0  0  0
  9 10  2  0  0  0
  9 11  1  0  0  0
 11 18  1  0  0  0
 11 19  1  0  0  0
M  END
> <s_m_source_file>
../5ai8_ligand.sdf

> <i_m_source_file_index>
1

> <s_epik_input>
W2NIXTFbY0hdYyhbQ0gzXSlbY0hdYyhjMTIpc2MobjIpW05IMl0=

> <s_epik_cmdline>
J2VwaWtfYXBwJywgJy1pbWFlJywgJ2xpZ2FuZF9wcm8ubWFlJywgJy1vbWFlJywgJ2xpZ2FuZF9wcmVwLm1hZScsICctbXMnLCAnMScsICctcGgnLCAnNycsICctcGh0JywgJzAuNScsICctbnQn

> <r_lp_tautomer_probability>
1

> <r_epik_Ionization_Penalty>
  0.0015

> <r_epik_Ionization_Penalty_Charging>
  0.0000

> <r_epik_Ionization_Penalty_Neutral>
  0.0015

> <r_epik_State_Penalty>
 -0.0000

> <r_epik_Charging_Adjusted_Penalty>
0

> <i_epik_Tot_Q>
0

> <i_epik_Tot_abs_Q>
0

$$$$
