5ai9_ligand
                    3D
 Schrodinger Suite 2020-3.
 50 51  0  0  1  0            999 V2000
   19.8400   10.5980   12.2520 C   0  0  0  0  0  0
   19.0330    9.3340   12.0970 C   0  0  0  0  0  0
   19.4570    8.3800   13.1780 C   0  0  0  0  0  0
   19.5010    8.6850   10.8020 C   0  0  0  0  0  0
   17.5410    9.6430   12.1040 C   0  0  0  0  0  0
   16.9040   10.1200   13.2470 C   0  0  0  0  0  0
   15.5600   10.4670   13.2840 C   0  0  0  0  0  0
   14.8180   10.3080   12.1230 C   0  0  0  0  0  0
   15.4000    9.8000   10.9810 C   0  0  0  0  0  0
   16.7500    9.4960   10.9680 C   0  0  0  0  0  0
   14.3230    9.5550    9.4130 Br  0  0  0  0  0  0
   13.4640   10.6260   12.0960 O   0  0  0  0  0  0
   14.8960   10.9670   14.5430 C   0  0  0  0  0  0
   15.7320   11.0470   15.7380 N   0  3  0  0  0  0
   14.8890   11.4500   16.8820 C   0  0  0  0  0  0
   15.7180   11.9160   18.0880 C   0  0  0  0  0  0
   14.9200   12.8000   19.0520 C   0  0  0  0  0  0
   13.7640   12.0110   19.5670 C   0  0  0  0  0  0
   13.9890   11.0040   20.5000 C   0  0  0  0  0  0
   12.9060   10.2610   20.9510 C   0  0  0  0  0  0
   11.6190   10.4940   20.5030 C   0  0  0  0  0  0
   11.4240   11.5050   19.5760 C   0  0  0  0  0  0
   12.4800   12.2690   19.0950 C   0  0  0  0  0  0
   20.9121   10.3518   12.2443 H   0  0  0  0  0  0
   19.5820   11.0832   13.2049 H   0  0  0  0  0  0
   19.6147   11.2812   11.4199 H   0  0  0  0  0  0
   20.5410    8.2064   13.1093 H   0  0  0  0  0  0
   18.9242    7.4256   13.0544 H   0  0  0  0  0  0
   19.2161    8.8098   14.1615 H   0  0  0  0  0  0
   20.5817    8.4882   10.8602 H   0  0  0  0  0  0
   19.2962    9.3606    9.9584 H   0  0  0  0  0  0
   18.9633    7.7372   10.6517 H   0  0  0  0  0  0
   17.4907   10.2264   14.1595 H   0  0  0  0  0  0
   17.2048    9.1328   10.0464 H   0  0  0  0  0  0
   12.9765   11.0327   12.9943 H   0  0  0  0  0  0
   14.5144   11.9852   14.3767 H   0  0  0  0  0  0
   14.0611   10.3010   14.8066 H   0  0  0  0  0  0
   16.1839   10.0638   15.9358 H   0  0  0  0  0  0
   16.5269   11.7908   15.5803 H   0  0  0  0  0  0
   14.2339   12.2805   16.5801 H   0  0  0  0  0  0
   14.2742   10.5962   17.2032 H   0  0  0  0  0  0
   16.0713   11.0394   18.6508 H   0  0  0  0  0  0
   16.5822   12.4983   17.7359 H   0  0  0  0  0  0
   15.5665   13.1088   19.8867 H   0  0  0  0  0  0
   14.5591   13.6917   18.5184 H   0  0  0  0  0  0
   14.9945   10.8024   20.8694 H   0  0  0  0  0  0
   13.0759    9.4695   21.6809 H   0  0  0  0  0  0
   10.7818    9.8994   20.8686 H   0  0  0  0  0  0
   10.4156   11.7063   19.2146 H   0  0  0  0  0  0
   12.3063   13.0562   18.3613 H   0  0  0  0  0  0
  1  2  1  0  0  0
  1 24  1  0  0  0
  1 25  1  0  0  0
  1 26  1  0  0  0
  2  3  1  0  0  0
  2  4  1  0  0  0
  2  5  1  0  0  0
  3 27  1  0  0  0
  3 28  1  0  0  0
  3 29  1  0  0  0
  4 30  1  0  0  0
  4 31  1  0  0  0
  4 32  1  0  0  0
  5  6  2  0  0  0
  5 10  1  0  0  0
  6  7  1  0  0  0
  6 33  1  0  0  0
  7  8  2  0  0  0
  7 13  1  0  0  0
  8  9  1  0  0  0
  8 12  1  0  0  0
  9 10  2  0  0  0
  9 11  1  0  0  0
 10 34  1  0  0  0
 12 35  1  0  0  0
 13 14  1  0  0  0
 13 36  1  0  0  0
 13 37  1  0  0  0
 14 15  1  0  0  0
 14 38  1  0  0  0
 14 39  1  0  0  0
 15 16  1  0  0  0
 15 40  1  0  0  0
 15 41  1  0  0  0
 16 17  1  0  0  0
 16 42  1  0  0  0
 16 43  1  0  0  0
 17 18  1  0  0  0
 17 44  1  0  0  0
 17 45  1  0  0  0
 18 19  2  0  0  0
 18 23  1  0  0  0
 19 20  1  0  0  0
 19 46  1  0  0  0
 20 21  2  0  0  0
 20 47  1  0  0  0
 21 22  1  0  0  0
 21 48  1  0  0  0
 22 23  2  0  0  0
 22 49  1  0  0  0
 23 50  1  0  0  0
M  CHG  1  14   1
M  END
> <s_m_source_file>
../5ai9_ligand.sdf

> <i_m_source_file_index>
1

> <s_epik_input>
W0NIM11DKFtDSDNdKShbQ0gzXSljMVtjSF1jKGMoW09IXSljKEJyKVtjSF0xKVtDSDJdW05IMitdW0NIMl1bQ0gyXVtDSDJdYzJbY0hdW2NIXVtjSF1bY0hdW2NIXTI=

> <s_epik_cmdline>
J2VwaWtfYXBwJywgJy1pbWFlJywgJ2xpZ2FuZF9wcm8ubWFlJywgJy1vbWFlJywgJ2xpZ2FuZF9wcmVwLm1hZScsICctbXMnLCAnMScsICctcGgnLCAnNycsICctcGh0JywgJzAuNScsICctbnQn

> <r_lp_tautomer_probability>
1

> <r_epik_Ionization_Penalty>
  0.1660

> <r_epik_Ionization_Penalty_Charging>
  0.0140

> <r_epik_Ionization_Penalty_Neutral>
  0.1519

> <r_epik_State_Penalty>
 -0.0000

> <r_epik_Charging_Adjusted_Penalty>
0.0140179509605494

> <i_epik_Tot_Q>
1

> <i_epik_Tot_abs_Q>
1

$$$$
