5aia_ligand
                    3D
 Schrodinger Suite 2020-3.
 31 32  0  0  1  0            999 V2000
  -15.6000   -9.4010   10.7420 C   0  0  0  0  0  0
  -14.4060   -9.4090   10.0510 C   0  0  0  0  0  0
  -14.4290   -9.5810    8.6920 C   0  0  0  0  0  0
  -15.6160   -9.7620    8.0100 C   0  0  0  0  0  0
  -16.8050   -9.7620    8.7180 C   0  0  0  0  0  0
  -16.8110   -9.5750   10.0870 C   0  0  0  0  0  0
  -18.1180   -9.5890   10.8320 C   0  0  0  0  0  0
  -18.1600  -10.7430   11.8330 C   0  0  0  0  0  0
  -18.5430  -10.3200   13.2390 C   0  0  0  0  0  0
  -19.7790   -9.4340   13.2630 C   0  0  0  0  0  0
  -19.6730   -8.2310   12.3350 C   0  0  0  0  0  0
  -18.4310   -8.2350   11.4640 C   0  0  0  0  0  0
  -15.6070   -9.9510    6.5420 C   0  0  0  0  0  0
  -14.7580  -10.7730    6.0950 O   0  0  0  0  0  0
  -16.4240   -9.2600    5.8640 O   0  5  0  0  0  0
  -13.2300   -9.5800    8.0250 O   0  0  0  0  0  0
  -15.5921   -9.2553   11.8222 H   0  0  0  0  0  0
  -13.4602   -9.2806   10.5774 H   0  0  0  0  0  0
  -17.7469   -9.9111    8.1901 H   0  0  0  0  0  0
  -18.9117   -9.7674   10.0916 H   0  0  0  0  0  0
  -18.8993  -11.4877   11.5032 H   0  0  0  0  0  0
  -17.1673  -11.2132   11.8924 H   0  0  0  0  0  0
  -18.7540  -11.2129   13.8458 H   0  0  0  0  0  0
  -17.7133   -9.7569   13.6913 H   0  0  0  0  0  0
  -20.6559  -10.0194   12.9492 H   0  0  0  0  0  0
  -19.9379   -9.0538   14.2829 H   0  0  0  0  0  0
  -20.5428   -8.2093   11.6620 H   0  0  0  0  0  0
  -19.6488   -7.3079   12.9327 H   0  0  0  0  0  0
  -17.5888   -7.9235   12.0994 H   0  0  0  0  0  0
  -18.5885   -7.4882   10.6719 H   0  0  0  0  0  0
  -12.2917   -9.4347    8.5805 H   0  0  0  0  0  0
  1  2  2  0  0  0
  1  6  1  0  0  0
  1 17  1  0  0  0
  2  3  1  0  0  0
  2 18  1  0  0  0
  3  4  2  0  0  0
  3 16  1  0  0  0
  4  5  1  0  0  0
  4 13  1  0  0  0
  5  6  2  0  0  0
  5 19  1  0  0  0
  6  7  1  0  0  0
  7  8  1  0  0  0
  7 12  1  0  0  0
  7 20  1  0  0  0
  8  9  1  0  0  0
  8 21  1  0  0  0
  8 22  1  0  0  0
  9 10  1  0  0  0
  9 23  1  0  0  0
  9 24  1  0  0  0
 10 11  1  0  0  0
 10 25  1  0  0  0
 10 26  1  0  0  0
 11 12  1  0  0  0
 11 27  1  0  0  0
 11 28  1  0  0  0
 12 29  1  0  0  0
 12 30  1  0  0  0
 13 14  2  0  0  0
 13 15  1  0  0  0
 16 31  1  0  0  0
M  CHG  1  15  -1
M  END
> <s_m_source_file>
../5aia_ligand.sdf

> <i_m_source_file_index>
1

> <s_epik_input>
Tz1DKFtPSF0pYzFbY0hdYyhbY0hdW2NIXWMxW09IXSlbQ0hdMltDSDJdW0NIMl1bQ0gyXVtDSDJdW0NIMl0y

> <s_epik_cmdline>
J2VwaWtfYXBwJywgJy1pbWFlJywgJ2xpZ2FuZF9wcm8ubWFlJywgJy1vbWFlJywgJ2xpZ2FuZF9wcmVwLm1hZScsICctbXMnLCAnMScsICctcGgnLCAnNycsICctcGh0JywgJzAuNScsICctbnQn

> <r_lp_tautomer_probability>
1

> <r_epik_Ionization_Penalty>
  0.0001

> <r_epik_Ionization_Penalty_Charging>
  0.0001

> <r_epik_Ionization_Penalty_Neutral>
  0.0000

> <r_epik_State_Penalty>
 -0.0000

> <r_epik_Charging_Adjusted_Penalty>
7.57966727954148e-05

> <i_epik_Tot_Q>
-1

> <i_epik_Tot_abs_Q>
1

$$$$
