5aib_ligand
                    3D
 Schrodinger Suite 2020-3.
 18 19  0  0  1  0            999 V2000
   17.6430  -10.0810  -13.2110 C   0  0  0  0  0  0
   16.3600  -10.1050  -12.6970 C   0  0  0  0  0  0
   16.1770  -10.0770  -11.3300 C   0  0  0  0  0  0
   17.2620  -10.0210  -10.4830 C   0  0  0  0  0  0
   18.5470   -9.9830  -10.9750 C   0  0  0  0  0  0
   18.7140  -10.0130  -12.3450 C   0  0  0  0  0  0
   20.3030   -9.9660  -12.9900 Cl  0  0  0  0  0  0
   17.0820   -9.9930   -9.1100 N   0  0  0  0  0  0
   15.8320   -9.9880   -8.5530 C   0  0  0  0  0  0
   15.6460   -9.8270   -7.3580 O   0  0  0  0  0  0
   14.6760  -10.2500   -9.4860 C   0  0  0  0  0  0
   14.8710  -10.0830  -10.8840 O   0  0  0  0  0  0
   17.8062  -10.1154  -14.2882 H   0  0  0  0  0  0
   15.5004  -10.1457  -13.3660 H   0  0  0  0  0  0
   19.4049   -9.9309  -10.3046 H   0  0  0  0  0  0
   17.9551   -9.9742   -8.4411 H   0  0  0  0  0  0
   14.3444  -11.2930   -9.3751 H   0  0  0  0  0  0
   13.8449   -9.5729   -9.2393 H   0  0  0  0  0  0
  1  2  2  0  0  0
  1  6  1  0  0  0
  1 13  1  0  0  0
  2  3  1  0  0  0
  2 14  1  0  0  0
  3  4  2  0  0  0
  3 12  1  0  0  0
  4  5  1  0  0  0
  4  8  1  0  0  0
  5  6  2  0  0  0
  5 15  1  0  0  0
  6  7  1  0  0  0
  8  9  1  0  0  0
  8 16  1  0  0  0
  9 10  2  0  0  0
  9 11  1  0  0  0
 11 12  1  0  0  0
 11 17  1  0  0  0
 11 18  1  0  0  0
M  END
> <s_m_source_file>
../5aib_ligand.sdf

> <i_m_source_file_index>
1

> <s_epik_input>
W2NIXTFbY0hdYyhDbClbY0hdYyhjMTIpW05IXUMoPU8pW0NIMl1PMg==

> <s_epik_cmdline>
J2VwaWtfYXBwJywgJy1pbWFlJywgJ2xpZ2FuZF9wcm8ubWFlJywgJy1vbWFlJywgJ2xpZ2FuZF9wcmVwLm1hZScsICctbXMnLCAnMScsICctcGgnLCAnNycsICctcGh0JywgJzAuNScsICctbnQn

> <r_lp_tautomer_probability>
1

> <r_epik_Ionization_Penalty>
  0.0000

> <r_epik_Ionization_Penalty_Charging>
  0.0000

> <r_epik_Ionization_Penalty_Neutral>
  0.0000

> <r_epik_State_Penalty>
 -0.0000

> <r_epik_Charging_Adjusted_Penalty>
0

> <i_epik_Tot_Q>
0

> <i_epik_Tot_abs_Q>
0

$$$$
