5ais_ligand
                    3D
 Schrodinger Suite 2020-3.
 46 48  0  0  1  0            999 V2000
   36.8150  -22.0320   -0.3500 C   0  0  0  0  0  0
   36.4500  -20.7910   -1.0120 N   0  3  0  0  0  0
   36.1290  -21.1330   -2.3880 C   0  0  0  0  0  0
   35.2250  -20.3150   -0.3920 C   0  0  0  0  0  0
   35.4710  -18.9510    0.2080 C   0  0  0  0  0  0
   34.1570  -18.2160    0.3150 C   0  0  0  0  0  0
   33.9900  -17.6840    1.7020 C   0  0  0  0  0  0
   34.2040  -18.3500    2.7060 O   0  0  0  0  0  0
   33.5640  -16.3770    1.6490 N   0  0  0  0  0  0
   33.0270  -15.6720    2.7360 C   0  0  0  0  0  0
   33.1100  -14.3000    2.7240 C   0  0  0  0  0  0
   32.5870  -13.5810    3.7760 C   0  0  0  0  0  0
   32.0000  -14.2990    4.7960 C   0  0  0  0  0  0
   31.8930  -15.6320    4.8480 N   0  0  0  0  0  0
   32.4130  -16.2870    3.8050 C   0  0  0  0  0  0
   32.6580  -12.1400    3.7680 C   0  0  0  0  0  0
   33.8140  -11.4620    3.4500 C   0  0  0  0  0  0
   33.8830  -10.0890    3.4220 C   0  0  0  0  0  0
   32.7970   -9.2960    3.7100 C   0  0  0  0  0  0
   31.6500   -9.9830    4.0310 C   0  0  0  0  0  0
   31.5490  -11.3630    4.0640 C   0  0  0  0  0  0
   30.2110  -11.6630    4.4280 C   0  0  0  0  0  0
   29.5330  -10.4810    4.6070 C   0  0  0  0  0  0
   30.4240   -9.4790    4.3600 N   0  0  0  0  0  0
   37.7417  -22.4253   -0.7934 H   0  0  0  0  0  0
   36.0067  -22.7671   -0.4776 H   0  0  0  0  0  0
   36.9729  -21.8430    0.7221 H   0  0  0  0  0  0
   37.2512  -20.0400   -0.9482 H   0  0  0  0  0  0
   37.0336  -21.4995   -2.8953 H   0  0  0  0  0  0
   35.7523  -20.2406   -2.9093 H   0  0  0  0  0  0
   35.3582  -21.9177   -2.4005 H   0  0  0  0  0  0
   34.4321  -20.2472   -1.1514 H   0  0  0  0  0  0
   34.9173  -21.0161    0.3978 H   0  0  0  0  0  0
   35.9144  -19.0650    1.2082 H   0  0  0  0  0  0
   36.1604  -18.3858   -0.4365 H   0  0  0  0  0  0
   34.1449  -17.3805   -0.4004 H   0  0  0  0  0  0
   33.3313  -18.9060    0.0868 H   0  0  0  0  0  0
   33.6336  -15.8136    0.7068 H   0  0  0  0  0  0
   33.5856  -13.7854    1.8891 H   0  0  0  0  0  0
   31.5879  -13.7328    5.6313 H   0  0  0  0  0  0
   32.3471  -17.3750    3.8001 H   0  0  0  0  0  0
   34.7091  -12.0363    3.2112 H   0  0  0  0  0  0
   34.8292   -9.6137    3.1631 H   0  0  0  0  0  0
   32.8420   -8.2072    3.6857 H   0  0  0  0  0  0
   29.7916  -12.6622    4.5458 H   0  0  0  0  0  0
   28.4973  -10.2392    4.8876 H   0  0  0  0  0  0
  1  2  1  0  0  0
  1 25  1  0  0  0
  1 26  1  0  0  0
  1 27  1  0  0  0
  2  3  1  0  0  0
  2  4  1  0  0  0
  2 28  1  0  0  0
  3 29  1  0  0  0
  3 30  1  0  0  0
  3 31  1  0  0  0
  4  5  1  0  0  0
  4 32  1  0  0  0
  4 33  1  0  0  0
  5  6  1  0  0  0
  5 34  1  0  0  0
  5 35  1  0  0  0
  6  7  1  0  0  0
  6 36  1  0  0  0
  6 37  1  0  0  0
  7  8  2  0  0  0
  7  9  1  0  0  0
  9 10  1  0  0  0
  9 38  1  0  0  0
 10 11  2  0  0  0
 10 15  1  0  0  0
 11 12  1  0  0  0
 11 39  1  0  0  0
 12 13  2  0  0  0
 12 16  1  0  0  0
 13 14  1  0  0  0
 13 40  1  0  0  0
 14 15  2  0  0  0
 15 41  1  0  0  0
 16 17  2  0  0  0
 16 21  1  0  0  0
 17 18  1  0  0  0
 17 42  1  0  0  0
 18 19  2  0  0  0
 18 43  1  0  0  0
 19 20  1  0  0  0
 19 44  1  0  0  0
 20 21  2  0  0  0
 20 24  1  0  0  0
 21 22  1  0  0  0
 22 23  1  0  0  0
 22 45  1  0  0  0
 23 24  2  0  0  0
 23 46  1  0  0  0
M  CHG  1   2   1
M  END
> <s_m_source_file>
../5ais_ligand.sdf

> <i_m_source_file_index>
1

> <s_epik_input>
W0NIM11bTkgrXShbQ0gzXSlbQ0gyXVtDSDJdW0NIMl1DKD1PKVtOSF1jMVtjSF1jKFtjSF1uW2NIXTEpLWMoW2NIXVtjSF1bY0hdMiljKGMyMylbQ0gyXVtDSF09TjM=

> <s_epik_cmdline>
J2VwaWtfYXBwJywgJy1pbWFlJywgJ2xpZ2FuZF9wcm8ubWFlJywgJy1vbWFlJywgJ2xpZ2FuZF9wcmVwLm1hZScsICctbXMnLCAnMScsICctcGgnLCAnNycsICctcGh0JywgJzAuNScsICctbnQn

> <r_epik_Ionization_Penalty>
  0.0263

> <r_epik_Ionization_Penalty_Charging>
  0.0037

> <r_epik_Ionization_Penalty_Neutral>
  0.0225

> <r_epik_State_Penalty>
  0.0177

> <r_epik_Charging_Adjusted_Penalty>
0.021466461972814

> <i_epik_Tot_Q>
1

> <i_epik_Tot_abs_Q>
1

> <s_epik_Chemistry_Notes>
This compound has an imine and may undergo hydrolysis.

$$$$
