5aiv_ligand
                    3D
 Schrodinger Suite 2020-3.
 37 39  0  0  1  0            999 V2000
   36.9540  -20.5450   -2.5310 C   0  0  0  0  0  0
   36.7680  -19.3150   -1.8220 O   0  0  0  0  0  0
   35.5010  -19.1900   -1.1650 C   0  0  0  0  0  0
   35.6650  -18.3750    0.1210 C   0  0  0  0  0  0
   34.4580  -18.5950    1.0380 C   0  0  0  0  0  0
   34.0320  -17.2960    1.5710 N   0  0  0  0  0  0
   33.3800  -17.1180    2.7470 C   0  0  0  0  0  0
   33.0920  -18.0360    3.4880 O   0  0  0  0  0  0
   33.0520  -15.7140    3.0780 C   0  0  0  0  0  0
   31.9720  -15.1480    3.6020 N   0  0  0  0  0  0
   32.2810  -13.8220    3.6530 C   0  0  0  0  0  0
   33.4730  -13.6820    3.1430 N   0  0  0  0  0  0
   33.9230  -14.7440    2.8160 O   0  0  0  0  0  0
   31.4940  -12.6410    4.0790 C   0  0  0  0  0  0
   30.2140  -12.7230    4.6190 C   0  0  0  0  0  0
   29.5240  -11.5620    4.9490 C   0  0  0  0  0  0
   30.0770  -10.3130    4.7380 C   0  0  0  0  0  0
   31.3480  -10.2020    4.1810 C   0  0  0  0  0  0
   32.0590  -11.3680    3.8450 C   0  0  0  0  0  0
   33.3390  -10.9150    3.2920 C   0  0  0  0  0  0
   33.3330   -9.5770    3.3190 C   0  0  0  0  0  0
   32.1540   -9.1370    3.8480 N   0  0  0  0  0  0
   37.9489  -20.5509   -3.0002 H   0  0  0  0  0  0
   36.1814  -20.6407   -3.3082 H   0  0  0  0  0  0
   36.8746  -21.3883   -1.8292 H   0  0  0  0  0  0
   34.7908  -18.6796   -1.8322 H   0  0  0  0  0  0
   35.1166  -20.1902   -0.9164 H   0  0  0  0  0  0
   36.5791  -18.6940    0.6431 H   0  0  0  0  0  0
   35.7395  -17.3064   -0.1291 H   0  0  0  0  0  0
   33.6386  -19.0506    0.4626 H   0  0  0  0  0  0
   34.7420  -19.2637    1.8639 H   0  0  0  0  0  0
   34.2378  -16.3752    1.0055 H   0  0  0  0  0  0
   29.7527  -13.6968    4.7831 H   0  0  0  0  0  0
   28.5270  -11.6383    5.3828 H   0  0  0  0  0  0
   29.5188   -9.4163    5.0073 H   0  0  0  0  0  0
   34.1459  -11.5502    2.9266 H   0  0  0  0  0  0
   34.0950   -8.8526    2.9955 H   0  0  0  0  0  0
  1  2  1  0  0  0
  1 23  1  0  0  0
  1 24  1  0  0  0
  1 25  1  0  0  0
  2  3  1  0  0  0
  3  4  1  0  0  0
  3 26  1  0  0  0
  3 27  1  0  0  0
  4  5  1  0  0  0
  4 28  1  0  0  0
  4 29  1  0  0  0
  5  6  1  0  0  0
  5 30  1  0  0  0
  5 31  1  0  0  0
  6  7  1  0  0  0
  6 32  1  0  0  0
  7  8  2  0  0  0
  7  9  1  0  0  0
  9 10  2  0  0  0
  9 13  1  0  0  0
 10 11  1  0  0  0
 11 12  2  0  0  0
 11 14  1  0  0  0
 12 13  1  0  0  0
 14 15  2  0  0  0
 14 19  1  0  0  0
 15 16  1  0  0  0
 15 33  1  0  0  0
 16 17  2  0  0  0
 16 34  1  0  0  0
 17 18  1  0  0  0
 17 35  1  0  0  0
 18 19  2  0  0  0
 18 22  1  0  0  0
 19 20  1  0  0  0
 20 21  1  0  0  0
 20 36  1  0  0  0
 21 22  2  0  0  0
 21 37  1  0  0  0
M  END
> <s_m_source_file>
../5aiv_ligand.sdf

> <i_m_source_file_index>
1

> <s_epik_input>
W0NIM11PW0NIMl1bQ0gyXVtDSDJdW05IXUMoPU8pYzFuYyhubzEpLWMoW2NIXVtjSF1bY0hdMiljKGMyMylbQ0gyXVtDSF09TjM=

> <s_epik_cmdline>
J2VwaWtfYXBwJywgJy1pbWFlJywgJ2xpZ2FuZF9wcm8ubWFlJywgJy1vbWFlJywgJ2xpZ2FuZF9wcmVwLm1hZScsICctbXMnLCAnMScsICctcGgnLCAnNycsICctcGh0JywgJzAuNScsICctbnQn

> <r_epik_Ionization_Penalty>
  0.0164

> <r_epik_Ionization_Penalty_Charging>
  0.0000

> <r_epik_Ionization_Penalty_Neutral>
  0.0164

> <r_epik_State_Penalty>
  0.0129

> <r_epik_Charging_Adjusted_Penalty>
0.0128542422362147

> <i_epik_Tot_Q>
0

> <i_epik_Tot_abs_Q>
0

> <s_epik_Chemistry_Notes>
This compound has an imine and may undergo hydrolysis.

$$$$
