5aix_ligand
                    3D
 Schrodinger Suite 2020-3.
 50 52  0  0  1  0            999 V2000
   16.5120    7.2020    2.2980 C   0  0  0  0  0  0
   16.1740    5.8710    2.6580 O   0  0  0  0  0  0
   16.4570    5.1170    1.5270 C   0  0  0  0  0  0
   17.6210    4.3860    1.4530 C   0  0  0  0  0  0
   17.8660    3.6410    0.3200 C   0  0  0  0  0  0
   16.9650    3.6540   -0.7130 C   0  0  0  0  0  0
   15.7920    4.3910   -0.6410 C   0  0  0  0  0  0
   15.5480    5.1190    0.4980 C   0  0  0  0  0  0
   14.8820    4.4650   -1.7590 C   0  0  0  0  0  0
   15.2080    3.7750   -2.9190 C   0  0  0  0  0  0
   14.3840    3.8650   -4.0190 C   0  0  0  0  0  0
   13.2700    4.6540   -3.8730 C   0  0  0  0  0  0
   12.9970    5.3180   -2.6860 C   0  0  0  0  0  0
   13.7900    5.2600   -1.6120 N   0  0  0  0  0  0
   12.3350    4.7810   -4.9820 C   0  0  0  0  0  0
   11.1420    4.8350   -4.6670 O   0  0  0  0  0  0
   12.9570    4.8040   -6.2210 N   0  0  0  0  0  0
   12.1660    4.8860   -7.4300 C   0  0  2  0  0  0
   11.9070    3.5730   -8.1270 C   0  0  0  0  0  0
   10.8980    3.8430   -9.2300 C   0  0  0  0  0  0
   11.5730    4.7350  -10.1580 N   0  0  2  0  0  0
   11.6720    6.0470   -9.5340 C   0  0  0  0  0  0
   12.7050    5.8910   -8.4260 C   0  0  0  0  0  0
   10.8320    4.8240  -11.3830 C   0  0  0  0  0  0
   11.7690    5.1720  -12.5270 C   0  0  0  0  0  0
   11.1380    4.7500  -13.6390 F   0  0  0  0  0  0
   11.9950    6.5270  -12.6520 F   0  0  0  0  0  0
   12.9970    4.5690  -12.4570 F   0  0  0  0  0  0
   16.3159    7.8727    3.1476 H   0  0  0  0  0  0
   15.9039    7.5144    1.4362 H   0  0  0  0  0  0
   17.5781    7.2502    2.0313 H   0  0  0  0  0  0
   18.3360    4.3963    2.2757 H   0  0  0  0  0  0
   18.7741    3.0428    0.2453 H   0  0  0  0  0  0
   17.1749    3.0725   -1.6107 H   0  0  0  0  0  0
   14.6299    5.7001    0.5852 H   0  0  0  0  0  0
   16.1109    3.1656   -2.9589 H   0  0  0  0  0  0
   14.6032    3.3413   -4.9495 H   0  0  0  0  0  0
   12.0889    5.9179   -2.6263 H   0  0  0  0  0  0
   14.0543    4.7598   -6.2836 H   0  0  0  0  0  0
   11.2146    5.2324   -7.0001 H   0  0  0  0  0  0
   12.8481    3.1896   -8.5481 H   0  0  0  0  0  0
   11.5061    2.8471   -7.4043 H   0  0  0  0  0  0
   10.6197    2.8945   -9.7126 H   0  0  0  0  0  0
   10.0011    4.3124   -8.7996 H   0  0  0  0  0  0
   11.9934    6.7859  -10.2829 H   0  0  0  0  0  0
   10.6902    6.3365   -9.1312 H   0  0  0  0  0  0
   12.8721    6.8540   -7.9213 H   0  0  0  0  0  0
   13.6560    5.5238   -8.8393 H   0  0  0  0  0  0
   10.3484    3.8579  -11.5900 H   0  0  0  0  0  0
   10.0641    5.6062  -11.2910 H   0  0  0  0  0  0
  1  2  1  0  0  0
  1 29  1  0  0  0
  1 30  1  0  0  0
  1 31  1  0  0  0
  2  3  1  0  0  0
  3  4  2  0  0  0
  3  8  1  0  0  0
  4  5  1  0  0  0
  4 32  1  0  0  0
  5  6  2  0  0  0
  5 33  1  0  0  0
  6  7  1  0  0  0
  6 34  1  0  0  0
  7  8  2  0  0  0
  7  9  1  0  0  0
  8 35  1  0  0  0
  9 10  2  0  0  0
  9 14  1  0  0  0
 10 11  1  0  0  0
 10 36  1  0  0  0
 11 12  2  0  0  0
 11 37  1  0  0  0
 12 13  1  0  0  0
 12 15  1  0  0  0
 13 14  2  0  0  0
 13 38  1  0  0  0
 15 16  2  0  0  0
 15 17  1  0  0  0
 17 18  1  0  0  0
 17 39  1  0  0  0
 18 19  1  0  0  0
 18 23  1  0  0  0
 18 40  1  0  0  0
 19 20  1  0  0  0
 19 41  1  0  0  0
 19 42  1  0  0  0
 20 21  1  0  0  0
 20 43  1  0  0  0
 20 44  1  0  0  0
 21 22  1  0  0  0
 21 24  1  0  0  0
 22 23  1  0  0  0
 22 45  1  0  0  0
 22 46  1  0  0  0
 23 47  1  0  0  0
 23 48  1  0  0  0
 24 25  1  0  0  0
 24 49  1  0  0  0
 24 50  1  0  0  0
 25 26  1  0  0  0
 25 27  1  0  0  0
 25 28  1  0  0  0
M  END
> <s_m_source_file>
../5aix_ligand.sdf

> <i_m_source_file_index>
1

> <s_epik_input>
W0NIM11PYzFbY0hdW2NIXVtjSF1jKFtjSF0xKS1jMltjSF1bY0hdYyhbY0hdbjIpQyg9TylbTkhdW0NAQEhdM1tDSDJdW0NIMl1bTkBIK10oW0NIMl1bQ0gyXTMpW0NIMl1DKEYpKEYpRg==

> <s_epik_cmdline>
J2VwaWtfYXBwJywgJy1pbWFlJywgJ2xpZ2FuZF9wcm8ubWFlJywgJy1vbWFlJywgJ2xpZ2FuZF9wcmVwLm1hZScsICctbXMnLCAnMScsICctcGgnLCAnNycsICctcGh0JywgJzAuNScsICctbnQn

> <r_lp_tautomer_probability>
1

> <r_epik_Ionization_Penalty>
  0.0228

> <r_epik_Ionization_Penalty_Charging>
  0.0000

> <r_epik_Ionization_Penalty_Neutral>
  0.0228

> <r_epik_State_Penalty>
  0.0183

> <r_epik_Charging_Adjusted_Penalty>
0.0183386399770633

> <i_epik_Tot_Q>
0

> <i_epik_Tot_abs_Q>
0

$$$$
