5ajo_ligand
                    3D
 Schrodinger Suite 2020-3.
201203  0  0  1  0            999 V2000
   27.7790   36.7400   15.9510 C   0  0  0  0  0  0
   27.8770   37.3470   14.5740 C   0  0  0  0  0  0
   26.9130   37.3840   13.8960 O   0  0  0  0  0  0
   29.0420   37.8020   14.1820 N   0  0  0  0  0  0
   29.1950   38.3960   12.8790 C   0  0  0  0  0  0
   29.4930   37.4430   11.7230 C   0  0  0  0  0  0
   30.0430   36.4010   11.8640 O   0  0  0  0  0  0
   29.0980   37.8930   10.5530 N   0  0  0  0  0  0
   29.4970   37.2860    9.3190 C   0  0  2  0  0  0
   30.9200   37.6800    8.9610 C   0  0  0  0  0  0
   31.4460   38.6680    9.4290 O   0  0  0  0  0  0
   28.5850   37.7630    8.1720 C   0  0  2  0  0  0
   28.5740   39.1920    8.1350 O   0  0  0  0  0  0
   27.1940   37.2660    8.3510 C   0  0  0  0  0  0
   31.5400   36.8790    8.1370 N   0  0  0  0  0  0
   32.8170   37.3030    7.5840 C   0  0  2  0  0  0
   32.5690   38.3940    6.5490 C   0  0  0  0  0  0
   31.5140   38.4110    5.9070 O   0  0  0  0  0  0
   33.5540   36.1670    6.8940 C   0  0  2  0  0  0
   32.6050   35.4050    6.1250 O   0  0  0  0  0  0
   34.1970   35.2710    7.9350 C   0  0  0  0  0  0
   33.5250   39.3070    6.3740 N   0  0  0  0  0  0
   33.4760   40.3260    5.3170 C   0  0  2  0  0  0
   33.1910   39.6820    3.9680 C   0  0  0  0  0  0
   33.8230   38.6750    3.6150 O   0  0  0  0  0  0
   34.8660   40.9530    5.3880 C   0  0  0  0  0  0
   35.2390   40.8160    6.8260 C   0  0  0  0  0  0
   34.6050   39.5670    7.3410 C   0  0  0  0  0  0
   32.1820   40.2480    3.2770 N   0  0  0  0  0  0
   31.5420   39.6240    2.1090 C   0  0  2  0  0  0
   32.0900   40.3660    0.8960 C   0  0  0  0  0  0
   32.3980   41.5780    0.9460 O   0  0  0  0  0  0
   29.9960   39.7350    2.2180 C   0  0  0  0  0  0
   29.2730   38.8070    1.3780 O   0  0  0  0  0  0
   32.2540   39.6260   -0.1990 N   0  0  0  0  0  0
   32.8450   40.2630   -1.3600 C   0  0  2  0  0  0
   31.8100   41.0550   -2.1910 C   0  0  0  0  0  0
   30.7560   40.5200   -2.3930 O   0  0  0  0  0  0
   33.4060   39.0800   -2.1440 C   0  0  0  0  0  0
   32.5320   37.9160   -1.7880 C   0  0  0  0  0  0
   32.0820   38.1640   -0.3780 C   0  0  0  0  0  0
   32.1210   42.2810   -2.6150 N   0  0  0  0  0  0
   31.1710   43.0910   -3.4840 C   0  0  2  0  0  0
   30.8300   42.2410   -4.7300 C   0  0  0  0  0  0
   31.6950   41.5920   -5.2920 O   0  0  0  0  0  0
   31.8040   44.4150   -3.9540 C   0  0  0  0  0  0
   30.9370   45.1010   -4.9790 C   0  0  0  0  0  0
   32.0610   45.3240   -2.8020 C   0  0  0  0  0  0
   29.5500   42.1660   -5.1730 N   0  0  0  0  0  0
   29.2350   41.3300   -6.3510 C   0  0  2  0  0  0
   29.8370   41.8930   -7.6270 C   0  0  0  0  0  0
   29.3440   42.8870   -8.1510 O   0  0  0  0  0  0
   27.6910   41.3040   -6.3780 C   0  0  0  0  0  0
   27.2540   41.8280   -5.1070 C   0  0  0  0  0  0
   28.3370   42.6820   -4.5110 C   0  0  0  0  0  0
   30.9320   41.2970   -8.0770 N   0  0  0  0  0  0
   31.5890   41.7000   -9.3240 C   0  0  2  0  0  0
   32.2530   40.4890   -9.9340 C   0  0  0  0  0  0
   32.3620   39.4450   -9.2960 O   0  0  0  0  0  0
   32.6250   42.8170   -9.1290 C   0  0  2  0  0  0
   33.5010   42.4990   -8.0410 O   0  0  0  0  0  0
   31.9570   44.1390   -8.8260 C   0  0  0  0  0  0
   32.6470   40.6250  -11.1770 N   0  0  0  0  0  0
   33.3080   39.5530  -11.9110 C   0  0  2  0  0  0
   34.2660   40.1750  -12.9220 C   0  0  0  0  0  0
   34.4760   41.4050  -12.9590 O   0  0  0  0  0  0
   32.2780   38.5940  -12.5370 C   0  0  2  0  0  0
   32.9200   37.3920  -13.0190 O   0  0  0  0  0  0
   31.5330   39.2760  -13.6990 C   0  0  0  0  0  0
   34.8580   39.3530  -13.7540 N   0  0  0  0  0  0
   35.7260   39.8580  -14.8060 C   0  0  2  0  0  0
   35.0150   40.8830  -15.6760 C   0  0  0  0  0  0
   33.8090   40.7070  -15.9960 O   0  0  0  0  0  0
   36.2140   38.7040  -15.6810 C   0  0  0  0  0  0
   37.0210   39.1590  -16.7590 O   0  0  0  0  0  0
   35.7480   41.8920  -16.1310 N   0  0  0  0  0  0
   35.1670   42.8470  -17.0740 C   0  0  2  0  0  0
   35.3640   42.4750  -18.5190 C   0  0  0  0  0  0
   35.0260   43.2490  -19.4210 O   0  0  0  0  0  0
   35.7080   44.2340  -16.8430 C   0  0  2  0  0  0
   37.1300   44.1660  -16.9860 O   0  0  0  0  0  0
   35.2540   44.7090  -15.4750 C   0  0  0  0  0  0
   35.8540   41.2760  -18.7940 N   0  0  0  0  0  0
   35.8730   40.7530  -20.1450 C   0  0  2  0  0  0
   35.2250   39.3860  -20.2460 C   0  0  0  0  0  0
   34.9570   38.7330  -19.2390 O   0  0  0  0  0  0
   37.3180   40.6610  -20.7140 C   0  0  2  0  0  0
   38.0650   39.6770  -19.9600 O   0  0  0  0  0  0
   38.0100   41.9520  -20.5760 C   0  0  0  0  0  0
   34.9680   38.9670  -21.4860 N   0  0  0  0  0  0
   34.3760   37.6510  -21.7700 C   0  0  2  0  0  0
   35.4070   36.6180  -22.1350 C   0  0  0  0  0  0
   36.3110   36.9130  -22.8920 O   0  0  0  0  0  0
   33.4220   37.7670  -22.9590 C   0  0  0  0  0  0
   32.3560   38.5840  -22.5930 O   0  0  0  0  0  0
   35.2570   35.4050  -21.6740 N   0  0  0  0  0  0
   36.1040   34.3210  -22.1240 C   0  0  2  0  0  0
   35.9210   33.9360  -23.6140 C   0  0  0  0  0  0
   34.9110   34.2190  -24.1790 O   0  0  0  0  0  0
   35.8800   33.1130  -21.2670 C   0  0  0  0  0  0
   36.9580   33.3220  -24.1870 N   0  0  0  0  0  0
   26.7464   36.4070   16.1323 H   0  0  0  0  0  0
   28.0594   37.4915   16.7038 H   0  0  0  0  0  0
   28.4597   35.8788   16.0213 H   0  0  0  0  0  0
   29.9070   37.7273   14.8574 H   0  0  0  0  0  0
   28.2677   38.9198   12.6036 H   0  0  0  0  0  0
   30.0291   39.1129   12.8985 H   0  0  0  0  0  0
   28.4355   38.7711   10.5451 H   0  0  0  0  0  0
   29.4152   36.2070    9.5168 H   0  0  0  0  0  0
   28.9562   37.4183    7.1956 H   0  0  0  0  0  0
   29.5157   39.7462    8.0080 H   0  0  0  0  0  0
   27.1984   36.1664    8.3800 H   0  0  0  0  0  0
   26.5715   37.6082    7.5112 H   0  0  0  0  0  0
   26.7838   37.6560    9.2942 H   0  0  0  0  0  0
   31.1172   35.9024    7.8587 H   0  0  0  0  0  0
   33.3995   37.6497    8.4503 H   0  0  0  0  0  0
   34.3129   36.5468    6.1941 H   0  0  0  0  0  0
   32.0361   35.8892    5.3176 H   0  0  0  0  0  0
   34.9221   35.8533    8.5225 H   0  0  0  0  0  0
   34.7144   34.4396    7.4339 H   0  0  0  0  0  0
   33.4209   34.8702    8.6036 H   0  0  0  0  0  0
   32.6656   41.0535    5.4722 H   0  0  0  0  0  0
   35.5503   40.4038    4.7245 H   0  0  0  0  0  0
   34.8108   42.0042    5.0688 H   0  0  0  0  0  0
   36.3336   40.7553    6.9167 H   0  0  0  0  0  0
   34.8727   41.6899    7.3847 H   0  0  0  0  0  0
   34.1746   39.6987    8.3447 H   0  0  0  0  0  0
   35.3021   38.7161    7.3497 H   0  0  0  0  0  0
   31.8404   41.2318    3.6311 H   0  0  0  0  0  0
   31.8009   38.5559    2.0627 H   0  0  0  0  0  0
   29.6865   39.5389    3.2552 H   0  0  0  0  0  0
   29.6796   40.7473    1.9262 H   0  0  0  0  0  0
   28.1730   38.8043    1.3813 H   0  0  0  0  0  0
   33.6017   40.9934   -1.0374 H   0  0  0  0  0  0
   33.3637   39.3006   -3.2208 H   0  0  0  0  0  0
   34.4504   38.9050   -1.8464 H   0  0  0  0  0  0
   31.6776   37.8741   -2.4795 H   0  0  0  0  0  0
   33.1122   36.9847   -1.8652 H   0  0  0  0  0  0
   32.7032   37.6292    0.3556 H   0  0  0  0  0  0
   31.0254   37.8979   -0.2271 H   0  0  0  0  0  0
   33.0929   42.7038   -2.3206 H   0  0  0  0  0  0
   30.2841   43.3309   -2.8792 H   0  0  0  0  0  0
   32.7770   44.2029   -4.4213 H   0  0  0  0  0  0
   30.7563   44.4183   -5.8223 H   0  0  0  0  0  0
   31.4454   46.0062   -5.3425 H   0  0  0  0  0  0
   29.9768   45.3790   -4.5200 H   0  0  0  0  0  0
   32.6940   44.8101   -2.0636 H   0  0  0  0  0  0
   31.1051   45.6029   -2.3347 H   0  0  0  0  0  0
   32.5737   46.2301   -3.1572 H   0  0  0  0  0  0
   29.6904   40.3328   -6.2602 H   0  0  0  0  0  0
   27.3282   41.9283   -7.2078 H   0  0  0  0  0  0
   27.3441   40.2696   -6.5185 H   0  0  0  0  0  0
   26.3491   42.4363   -5.2527 H   0  0  0  0  0  0
   27.0298   40.9950   -4.4245 H   0  0  0  0  0  0
   28.4310   42.5546   -3.4225 H   0  0  0  0  0  0
   28.2170   43.7498   -4.7462 H   0  0  0  0  0  0
   31.3467   40.4726   -7.4784 H   0  0  0  0  0  0
   30.7832   42.0840   -9.9668 H   0  0  0  0  0  0
   33.2493   42.9022  -10.0307 H   0  0  0  0  0  0
   34.0890   41.5696   -8.0619 H   0  0  0  0  0  0
   31.2780   44.4040   -9.6498 H   0  0  0  0  0  0
   32.7234   44.9205   -8.7166 H   0  0  0  0  0  0
   31.3836   44.0543   -7.8911 H   0  0  0  0  0  0
   32.4618   41.5931  -11.6654 H   0  0  0  0  0  0
   33.8940   38.9654  -11.1890 H   0  0  0  0  0  0
   31.5724   38.2598  -11.7621 H   0  0  0  0  0  0
   33.5042   36.7658  -12.3286 H   0  0  0  0  0  0
   31.0437   40.1911  -13.3340 H   0  0  0  0  0  0
   30.7734   38.5893  -14.1008 H   0  0  0  0  0  0
   32.2497   39.5348  -14.4924 H   0  0  0  0  0  0
   34.6923   38.2705  -13.6500 H   0  0  0  0  0  0
   36.5596   40.3424  -14.2765 H   0  0  0  0  0  0
   36.8124   38.0101  -15.0724 H   0  0  0  0  0  0
   35.3484   38.1706  -16.1007 H   0  0  0  0  0  0
   37.4433   38.4366  -17.4730 H   0  0  0  0  0  0
   36.7903   42.0106  -15.8002 H   0  0  0  0  0  0
   34.0906   42.7980  -16.8528 H   0  0  0  0  0  0
   35.3862   44.9725  -17.5921 H   0  0  0  0  0  0
   37.5719   43.8341  -17.9371 H   0  0  0  0  0  0
   34.1548   44.7350  -15.4421 H   0  0  0  0  0  0
   35.6504   45.7177  -15.2869 H   0  0  0  0  0  0
   35.6277   44.0186  -14.7045 H   0  0  0  0  0  0
   36.2534   40.6731  -17.9652 H   0  0  0  0  0  0
   35.2594   41.4912  -20.6821 H   0  0  0  0  0  0
   37.3224   40.3712  -21.7751 H   0  0  0  0  0  0
   37.7210   38.6327  -19.9262 H   0  0  0  0  0  0
   37.4642   42.7227  -21.1401 H   0  0  0  0  0  0
   39.0328   41.8638  -20.9711 H   0  0  0  0  0  0
   38.0503   42.2347  -19.5137 H   0  0  0  0  0  0
   35.2165   39.6484  -22.3130 H   0  0  0  0  0  0
   33.8821   37.3564  -20.8323 H   0  0  0  0  0  0
   33.9548   38.2066  -23.8151 H   0  0  0  0  0  0
   33.0522   36.7674  -23.2313 H   0  0  0  0  0  0
   31.5524   38.7956  -23.3138 H   0  0  0  0  0  0
   34.4692   35.2150  -20.9302 H   0  0  0  0  0  0
   37.1140   34.7310  -21.9766 H   0  0  0  0  0  0
   36.0096   33.3849  -20.2090 H   0  0  0  0  0  0
   36.6065   32.3323  -21.5366 H   0  0  0  0  0  0
   34.8594   32.7348  -21.4260 H   0  0  0  0  0  0
   37.8575   33.0945  -23.5962 H   0  0  0  0  0  0
   36.9133   33.0433  -25.2502 H   0  0  0  0  0  0
  1  2  1  0  0  0
  1102  1  0  0  0
  1103  1  0  0  0
  1104  1  0  0  0
  2  3  2  0  0  0
  2  4  1  0  0  0
  4  5  1  0  0  0
  4105  1  0  0  0
  5  6  1  0  0  0
  5106  1  0  0  0
  5107  1  0  0  0
  6  7  2  0  0  0
  6  8  1  0  0  0
  8  9  1  0  0  0
  8108  1  0  0  0
  9 10  1  0  0  0
  9 12  1  0  0  0
  9109  1  0  0  0
 10 11  2  0  0  0
 10 15  1  0  0  0
 12 13  1  0  0  0
 12 14  1  0  0  0
 12110  1  0  0  0
 13111  1  0  0  0
 14112  1  0  0  0
 14113  1  0  0  0
 14114  1  0  0  0
 15 16  1  0  0  0
 15115  1  0  0  0
 16 17  1  0  0  0
 16 19  1  0  0  0
 16116  1  0  0  0
 17 18  2  0  0  0
 17 22  1  0  0  0
 19 20  1  0  0  0
 19 21  1  0  0  0
 19117  1  0  0  0
 20118  1  0  0  0
 21119  1  0  0  0
 21120  1  0  0  0
 21121  1  0  0  0
 22 23  1  0  0  0
 22 28  1  0  0  0
 23 24  1  0  0  0
 23 26  1  0  0  0
 23122  1  0  0  0
 24 25  2  0  0  0
 24 29  1  0  0  0
 26 27  1  0  0  0
 26123  1  0  0  0
 26124  1  0  0  0
 27 28  1  0  0  0
 27125  1  0  0  0
 27126  1  0  0  0
 28127  1  0  0  0
 28128  1  0  0  0
 29 30  1  0  0  0
 29129  1  0  0  0
 30 31  1  0  0  0
 30 33  1  0  0  0
 30130  1  0  0  0
 31 32  2  0  0  0
 31 35  1  0  0  0
 33 34  1  0  0  0
 33131  1  0  0  0
 33132  1  0  0  0
 34133  1  0  0  0
 35 36  1  0  0  0
 35 41  1  0  0  0
 36 37  1  0  0  0
 36 39  1  0  0  0
 36134  1  0  0  0
 37 38  2  0  0  0
 37 42  1  0  0  0
 39 40  1  0  0  0
 39135  1  0  0  0
 39136  1  0  0  0
 40 41  1  0  0  0
 40137  1  0  0  0
 40138  1  0  0  0
 41139  1  0  0  0
 41140  1  0  0  0
 42 43  1  0  0  0
 42141  1  0  0  0
 43 44  1  0  0  0
 43 46  1  0  0  0
 43142  1  0  0  0
 44 45  2  0  0  0
 44 49  1  0  0  0
 46 47  1  0  0  0
 46 48  1  0  0  0
 46143  1  0  0  0
 47144  1  0  0  0
 47145  1  0  0  0
 47146  1  0  0  0
 48147  1  0  0  0
 48148  1  0  0  0
 48149  1  0  0  0
 49 50  1  0  0  0
 49 55  1  0  0  0
 50 51  1  0  0  0
 50 53  1  0  0  0
 50150  1  0  0  0
 51 52  2  0  0  0
 51 56  1  0  0  0
 53 54  1  0  0  0
 53151  1  0  0  0
 53152  1  0  0  0
 54 55  1  0  0  0
 54153  1  0  0  0
 54154  1  0  0  0
 55155  1  0  0  0
 55156  1  0  0  0
 56 57  1  0  0  0
 56157  1  0  0  0
 57 58  1  0  0  0
 57 60  1  0  0  0
 57158  1  0  0  0
 58 59  2  0  0  0
 58 63  1  0  0  0
 60 61  1  0  0  0
 60 62  1  0  0  0
 60159  1  0  0  0
 61160  1  0  0  0
 62161  1  0  0  0
 62162  1  0  0  0
 62163  1  0  0  0
 63 64  1  0  0  0
 63164  1  0  0  0
 64 65  1  0  0  0
 64 67  1  0  0  0
 64165  1  0  0  0
 65 66  2  0  0  0
 65 70  1  0  0  0
 67 68  1  0  0  0
 67 69  1  0  0  0
 67166  1  0  0  0
 68167  1  0  0  0
 69168  1  0  0  0
 69169  1  0  0  0
 69170  1  0  0  0
 70 71  1  0  0  0
 70171  1  0  0  0
 71 72  1  0  0  0
 71 74  1  0  0  0
 71172  1  0  0  0
 72 73  2  0  0  0
 72 76  1  0  0  0
 74 75  1  0  0  0
 74173  1  0  0  0
 74174  1  0  0  0
 75175  1  0  0  0
 76 77  1  0  0  0
 76176  1  0  0  0
 77 78  1  0  0  0
 77 80  1  0  0  0
 77177  1  0  0  0
 78 79  2  0  0  0
 78 83  1  0  0  0
 80 81  1  0  0  0
 80 82  1  0  0  0
 80178  1  0  0  0
 81179  1  0  0  0
 82180  1  0  0  0
 82181  1  0  0  0
 82182  1  0  0  0
 83 84  1  0  0  0
 83183  1  0  0  0
 84 85  1  0  0  0
 84 87  1  0  0  0
 84184  1  0  0  0
 85 86  2  0  0  0
 85 90  1  0  0  0
 87 88  1  0  0  0
 87 89  1  0  0  0
 87185  1  0  0  0
 88186  1  0  0  0
 89187  1  0  0  0
 89188  1  0  0  0
 89189  1  0  0  0
 90 91  1  0  0  0
 90190  1  0  0  0
 91 92  1  0  0  0
 91 94  1  0  0  0
 91191  1  0  0  0
 92 93  2  0  0  0
 92 96  1  0  0  0
 94 95  1  0  0  0
 94192  1  0  0  0
 94193  1  0  0  0
 95194  1  0  0  0
 96 97  1  0  0  0
 96195  1  0  0  0
 97 98  1  0  0  0
 97100  1  0  0  0
 97196  1  0  0  0
 98 99  2  0  0  0
 98101  1  0  0  0
100197  1  0  0  0
100198  1  0  0  0
100199  1  0  0  0
101200  1  0  0  0
101201  1  0  0  0
M  END
> <s_m_source_file>
../5ajo_ligand.sdf

> <i_m_source_file_index>
1

> <s_epik_input>
W0NIM11DKD1PKVtOSF1bQ0gyXUMoPU8pW05IXVtDQEBIXShbQ0BIXShbT0hdKVtDSDNdKUMoPU8pW05IXVtDQEBIXShbQ0BIXShbT0hdKVtDSDNdKUMoPU8pTjFbQ0BASF0oW0NIMl1bQ0gyXVtDSDJdMSlDKD1PKVtOSF1bQ0BASF0oW0NIMl1bT0hdKUMoPU8pTjJbQ0BASF0oW0NIMl1bQ0gyXVtDSDJdMilDKD1PKVtOSF1bQ0BASF0oW0NIXShbQ0gzXSlbQ0gzXSlDKD1PKU4zW0NAQEhdKFtDSDJdW0NIMl1bQ0gyXTMpQyg9TylbTkhdW0NAQEhdKFtDQEhdKFtPSF0pW0NIM10pQyg9TylbTkhdW0NAQEhdKFtDQEhdKFtPSF0pW0NIM10pQyg9TylbTkhdW0NAQEhdKFtDSDJdW09IXSlDKD1PKVtOSF1bQ0BASF0oW0NASF0oW09IXSlbQ0gzXSlDKD1PKVtOSF1bQ0BASF0oW0NASF0oW09IXSlbQ0gzXSlDKD1PKVtOSF1bQ0BASF0oW0NIMl1bT0hdKUMoPU8pW05IXVtDQEBIXShbQ0gzXSlDKD1PKVtOSDJd

> <s_epik_cmdline>
J2VwaWtfYXBwJywgJy1pbWFlJywgJ2xpZ2FuZF9wcm8ubWFlJywgJy1vbWFlJywgJ2xpZ2FuZF9wcmVwLm1hZScsICctbXMnLCAnMScsICctcGgnLCAnNycsICctcGh0JywgJzAuNScsICctbnQn

> <s_epik_pKa_notes>
Molecule size exceeds maximum supported for generating protonation states

$$$$
