5ajp_ligand
                    3D
 Schrodinger Suite 2020-3.
190192  0  0  1  0            999 V2000
    7.6790    1.7430   -5.8580 N   0  3  0  0  0  0
    8.0640    3.1790   -5.7590 C   0  0  2  0  0  0
    6.8250    4.0110   -5.4540 C   0  0  0  0  0  0
    5.9830    4.2240   -6.3360 O   0  0  0  0  0  0
    8.6970    3.6750   -7.0770 C   0  0  2  0  0  0
    9.6970    2.7420   -7.5150 O   0  0  0  0  0  0
    9.3420    5.0320   -6.9010 C   0  0  0  0  0  0
    6.7230    4.5140   -4.2260 N   0  0  0  0  0  0
    5.4910    5.1920   -3.8140 C   0  0  2  0  0  0
    5.6580    6.7120   -3.9080 C   0  0  0  0  0  0
    6.7450    7.2610   -3.7100 O   0  0  0  0  0  0
    5.0440    4.7880   -2.3920 C   0  0  2  0  0  0
    5.9470    5.3120   -1.4440 O   0  0  0  0  0  0
    5.0570    3.2780   -2.2220 C   0  0  0  0  0  0
    4.5670    7.4090   -4.2280 N   0  0  0  0  0  0
    4.6680    8.8560   -4.3490 C   0  0  2  0  0  0
    4.8450    9.5700   -3.0240 C   0  0  0  0  0  0
    4.8360    8.9720   -1.9520 O   0  0  0  0  0  0
    3.3260    9.2580   -4.9250 C   0  0  0  0  0  0
    2.5530    8.0400   -5.1830 C   0  0  0  0  0  0
    3.2120    6.9000   -4.5020 C   0  0  0  0  0  0
    4.9150   10.8890   -3.0800 N   0  0  0  0  0  0
    5.1030   11.6750   -1.8390 C   0  0  2  0  0  0
    3.9870   11.3770   -0.8540 C   0  0  0  0  0  0
    2.8220   11.3610   -1.1970 O   0  0  0  0  0  0
    5.1400   13.1790   -2.1330 C   0  0  0  0  0  0
    6.2610   13.5050   -2.9520 O   0  0  0  0  0  0
    4.3390   11.0820    0.3780 N   0  0  0  0  0  0
    3.3090   10.6690    1.3310 C   0  0  2  0  0  0
    2.6020   11.8460    2.0060 C   0  0  0  0  0  0
    3.2040   12.8880    2.2160 O   0  0  0  0  0  0
    4.1180    9.8870    2.3610 C   0  0  0  0  0  0
    5.4550   10.5120    2.3310 C   0  0  0  0  0  0
    5.6910   10.9920    0.9370 C   0  0  0  0  0  0
    1.3220   11.6760    2.3390 N   0  0  0  0  0  0
    0.6030   12.6530    3.1820 C   0  0  2  0  0  0
    1.3630   12.8700    4.4890 C   0  0  0  0  0  0
    1.9360   11.9380    5.0240 O   0  0  0  0  0  0
   -0.8230   12.1810    3.5360 C   0  0  0  0  0  0
   -1.5030   13.1450    4.5040 C   0  0  0  0  0  0
   -1.6720   12.0940    2.3210 C   0  0  0  0  0  0
    1.4180   14.0990    4.9970 N   0  0  0  0  0  0
    2.2170   14.4060    6.2010 C   0  0  2  0  0  0
    1.6370   13.8950    7.4870 C   0  0  0  0  0  0
    0.7120   14.5110    8.0570 O   0  0  0  0  0  0
    2.2880   15.9290    6.2380 C   0  0  0  0  0  0
    1.6250   16.4090    5.0080 C   0  0  0  0  0  0
    0.9570   15.3080    4.3020 C   0  0  0  0  0  0
    2.1960   12.7810    7.9410 N   0  0  0  0  0  0
    1.8190   12.1690    9.2220 C   0  0  2  0  0  0
    3.0580   11.5760    9.8510 C   0  0  0  0  0  0
    4.1090   11.5160    9.2260 O   0  0  0  0  0  0
    0.7790   11.0510    9.0310 C   0  0  2  0  0  0
    1.3480    9.9820    8.2610 O   0  0  0  0  0  0
   -0.4510   11.5760    8.3280 C   0  0  0  0  0  0
    2.9110   11.1060   11.0820 N   0  0  0  0  0  0
    4.0000   10.4530   11.7790 C   0  0  2  0  0  0
    3.3650    9.5160   12.8250 C   0  0  0  0  0  0
    2.1350    9.3370   12.8810 O   0  0  0  0  0  0
    4.9990   11.4900   12.3940 C   0  0  2  0  0  0
    6.1770   10.8270   12.9330 O   0  0  0  0  0  0
    4.3400   12.2940   13.5000 C   0  0  0  0  0  0
    4.2030    8.9230   13.6460 N   0  0  0  0  0  0
    3.7160    8.0280   14.6740 C   0  0  2  0  0  0
    2.6950    8.7470   15.5350 C   0  0  0  0  0  0
    2.8470    9.9480   15.8200 O   0  0  0  0  0  0
    4.8590    7.6220   15.5760 C   0  0  0  0  0  0
    4.4350    6.7440   16.6190 O   0  0  0  0  0  0
    1.7010    8.0050   16.0050 N   0  0  0  0  0  0
    0.7270    8.5650   16.9250 C   0  0  2  0  0  0
    1.0930    8.3670   18.3860 C   0  0  0  0  0  0
    0.2870    8.6620   19.2610 O   0  0  0  0  0  0
   -0.6620    7.9960   16.6410 C   0  0  2  0  0  0
   -0.6010    6.5790   16.7450 O   0  0  0  0  0  0
   -1.1120    8.4090   15.2080 C   0  0  0  0  0  0
    2.2890    7.8860   18.6660 N   0  0  0  0  0  0
    2.7650    7.8450   20.0350 C   0  0  2  0  0  0
    4.1320    8.4930   20.1360 C   0  0  0  0  0  0
    4.7850    8.7740   19.1350 O   0  0  0  0  0  0
    2.8360    6.4040   20.5820 C   0  0  2  0  0  0
    3.8240    5.6760   19.8400 O   0  0  0  0  0  0
    1.5080    5.7390   20.4290 C   0  0  0  0  0  0
    4.5510    8.7340   21.3740 N   0  0  0  0  0  0
    5.8800    9.2860   21.6660 C   0  0  2  0  0  0
    6.8600    8.2680   22.1600 C   0  0  0  0  0  0
    6.4800    7.4040   22.9440 O   0  0  0  0  0  0
    5.7670   10.3940   22.7230 C   0  0  0  0  0  0
    5.1120   11.4830   22.1310 O   0  0  0  0  0  0
    8.1150    8.3670   21.7030 N   0  0  0  0  0  0
    9.1860    7.4610   22.1690 C   0  0  2  0  0  0
    9.4250    7.6240   23.6580 C   0  0  0  0  0  0
    9.2230    8.7300   24.1740 O   0  0  0  0  0  0
   10.4700    7.7280   21.4060 C   0  0  0  0  0  0
    9.7590    6.5120   24.5400 N   0  0  0  0  0  0
    7.2317    1.4169   -4.9074 H   0  0  0  0  0  0
    8.5727    1.1375   -6.0695 H   0  0  0  0  0  0
    6.9483    1.6144   -6.6702 H   0  0  0  0  0  0
    8.7939    3.2585   -4.9399 H   0  0  0  0  0  0
    7.9368    3.7291   -7.8702 H   0  0  0  0  0  0
    9.4259    1.6923   -7.7012 H   0  0  0  0  0  0
    8.5856    5.7567   -6.5653 H   0  0  0  0  0  0
    9.7669    5.3632   -7.8601 H   0  0  0  0  0  0
   10.1425    4.9628   -6.1497 H   0  0  0  0  0  0
    7.5620    4.4213   -3.5207 H   0  0  0  0  0  0
    4.7386    4.8458   -4.5379 H   0  0  0  0  0  0
    4.0530    5.2112   -2.1710 H   0  0  0  0  0  0
    6.1068    6.3984   -1.3786 H   0  0  0  0  0  0
    4.3639    2.8218   -2.9441 H   0  0  0  0  0  0
    4.7427    3.0214   -1.1996 H   0  0  0  0  0  0
    6.0739    2.8978   -2.3993 H   0  0  0  0  0  0
    5.5542    9.0877   -4.9580 H   0  0  0  0  0  0
    2.7943    9.8969   -4.2045 H   0  0  0  0  0  0
    3.4805    9.8125   -5.8624 H   0  0  0  0  0  0
    1.5314    8.1650   -4.7948 H   0  0  0  0  0  0
    2.5133    7.8535   -6.2663 H   0  0  0  0  0  0
    3.2779    6.0081   -5.1424 H   0  0  0  0  0  0
    2.7211    6.6351   -3.5539 H   0  0  0  0  0  0
    4.8335   11.4026   -4.0493 H   0  0  0  0  0  0
    6.0684   11.3550   -1.4199 H   0  0  0  0  0  0
    4.2189   13.4728   -2.6577 H   0  0  0  0  0  0
    5.2167   13.7357   -1.1874 H   0  0  0  0  0  0
    6.4350   14.5476   -3.2565 H   0  0  0  0  0  0
    2.5214   10.1068    0.8078 H   0  0  0  0  0  0
    3.6428    9.9810    3.3486 H   0  0  0  0  0  0
    4.1538    8.8266    2.0708 H   0  0  0  0  0  0
    5.4821   11.3539    3.0385 H   0  0  0  0  0  0
    6.2138    9.7685    2.6165 H   0  0  0  0  0  0
    6.2867   10.2829    0.3435 H   0  0  0  0  0  0
    6.1663   11.9836    0.9087 H   0  0  0  0  0  0
    0.8013   10.7805    1.9690 H   0  0  0  0  0  0
    0.5636   13.5688    2.5739 H   0  0  0  0  0  0
   -0.7465   11.1786    3.9826 H   0  0  0  0  0  0
   -0.8984   13.2333    5.4187 H   0  0  0  0  0  0
   -2.5022   12.7631    4.7603 H   0  0  0  0  0  0
   -1.5984   14.1334    4.0307 H   0  0  0  0  0  0
   -1.2096   11.4046    1.5992 H   0  0  0  0  0  0
   -1.7658   13.0916    1.8670 H   0  0  0  0  0  0
   -2.6696   11.7213    2.5967 H   0  0  0  0  0  0
    3.1822   13.8858    6.1132 H   0  0  0  0  0  0
    1.7689   16.2986    7.1346 H   0  0  0  0  0  0
    3.3408   16.2464    6.2669 H   0  0  0  0  0  0
    0.8719   17.1670    5.2693 H   0  0  0  0  0  0
    2.3747   16.8532    4.3368 H   0  0  0  0  0  0
    1.2526   15.2577    3.2437 H   0  0  0  0  0  0
   -0.1385   15.3770    4.3738 H   0  0  0  0  0  0
    2.9712   12.3143    7.3155 H   0  0  0  0  0  0
    1.3966   12.9749    9.8402 H   0  0  0  0  0  0
    0.4924   10.6170   10.0003 H   0  0  0  0  0  0
    2.2553    9.4711    8.6157 H   0  0  0  0  0  0
   -0.8883   12.3956    8.9171 H   0  0  0  0  0  0
   -1.1876   10.7657    8.2238 H   0  0  0  0  0  0
   -0.1725   11.9489    7.3313 H   0  0  0  0  0  0
    1.9338   11.2214   11.5738 H   0  0  0  0  0  0
    4.5609    9.8705   11.0333 H   0  0  0  0  0  0
    5.3639   12.1711   11.6111 H   0  0  0  0  0  0
    6.7961   10.1913   12.2829 H   0  0  0  0  0  0
    3.4474   12.8000   13.1035 H   0  0  0  0  0  0
    5.0487   13.0446   13.8798 H   0  0  0  0  0  0
    4.0463   11.6200   14.3182 H   0  0  0  0  0  0
    5.2822    9.1116   13.5471 H   0  0  0  0  0  0
    3.2809    7.1649   14.1489 H   0  0  0  0  0  0
    5.6274    7.1038   14.9835 H   0  0  0  0  0  0
    5.2963    8.5184   16.0398 H   0  0  0  0  0  0
    5.1642    6.3677   17.3516 H   0  0  0  0  0  0
    1.6194    6.9542   15.6902 H   0  0  0  0  0  0
    0.7669    9.6442   16.7160 H   0  0  0  0  0  0
   -1.3903    8.3128   17.4021 H   0  0  0  0  0  0
   -0.2993    6.1096   17.6930 H   0  0  0  0  0  0
   -1.1556    9.5060   15.1393 H   0  0  0  0  0  0
   -2.1072    7.9888   15.0009 H   0  0  0  0  0  0
   -0.3909    8.0239   14.4720 H   0  0  0  0  0  0
    2.9268    7.5141   17.8506 H   0  0  0  0  0  0
    2.0187    8.4283   20.5943 H   0  0  0  0  0  0
    3.1374    6.3688   21.6393 H   0  0  0  0  0  0
    4.8694    6.0180   19.8334 H   0  0  0  0  0  0
    0.7505    6.2976   20.9982 H   0  0  0  0  0  0
    1.5676    4.7090   20.8105 H   0  0  0  0  0  0
    1.2276    5.7204   19.3655 H   0  0  0  0  0  0
    3.8584    8.5033   22.1968 H   0  0  0  0  0  0
    6.2383    9.6443   20.6896 H   0  0  0  0  0  0
    5.1907   10.0227   23.5832 H   0  0  0  0  0  0
    6.7736   10.6878   23.0553 H   0  0  0  0  0  0
    4.9236   12.3955   22.7156 H   0  0  0  0  0  0
    8.3392    9.1481   20.9616 H   0  0  0  0  0  0
    8.8393    6.4363   21.9696 H   0  0  0  0  0  0
   10.2876    7.6077   20.3279 H   0  0  0  0  0  0
   11.2433    7.0154   21.7289 H   0  0  0  0  0  0
   10.8099    8.7545   21.6081 H   0  0  0  0  0  0
    9.9457    5.5130   24.1191 H   0  0  0  0  0  0
    9.8243    6.6721   25.6263 H   0  0  0  0  0  0
  1  2  1  0  0  0
  1 95  1  0  0  0
  1 96  1  0  0  0
  1 97  1  0  0  0
  2  3  1  0  0  0
  2  5  1  0  0  0
  2 98  1  0  0  0
  3  4  2  0  0  0
  3  8  1  0  0  0
  5  6  1  0  0  0
  5  7  1  0  0  0
  5 99  1  0  0  0
  6100  1  0  0  0
  7101  1  0  0  0
  7102  1  0  0  0
  7103  1  0  0  0
  8  9  1  0  0  0
  8104  1  0  0  0
  9 10  1  0  0  0
  9 12  1  0  0  0
  9105  1  0  0  0
 10 11  2  0  0  0
 10 15  1  0  0  0
 12 13  1  0  0  0
 12 14  1  0  0  0
 12106  1  0  0  0
 13107  1  0  0  0
 14108  1  0  0  0
 14109  1  0  0  0
 14110  1  0  0  0
 15 16  1  0  0  0
 15 21  1  0  0  0
 16 17  1  0  0  0
 16 19  1  0  0  0
 16111  1  0  0  0
 17 18  2  0  0  0
 17 22  1  0  0  0
 19 20  1  0  0  0
 19112  1  0  0  0
 19113  1  0  0  0
 20 21  1  0  0  0
 20114  1  0  0  0
 20115  1  0  0  0
 21116  1  0  0  0
 21117  1  0  0  0
 22 23  1  0  0  0
 22118  1  0  0  0
 23 24  1  0  0  0
 23 26  1  0  0  0
 23119  1  0  0  0
 24 25  2  0  0  0
 24 28  1  0  0  0
 26 27  1  0  0  0
 26120  1  0  0  0
 26121  1  0  0  0
 27122  1  0  0  0
 28 29  1  0  0  0
 28 34  1  0  0  0
 29 30  1  0  0  0
 29 32  1  0  0  0
 29123  1  0  0  0
 30 31  2  0  0  0
 30 35  1  0  0  0
 32 33  1  0  0  0
 32124  1  0  0  0
 32125  1  0  0  0
 33 34  1  0  0  0
 33126  1  0  0  0
 33127  1  0  0  0
 34128  1  0  0  0
 34129  1  0  0  0
 35 36  1  0  0  0
 35130  1  0  0  0
 36 37  1  0  0  0
 36 39  1  0  0  0
 36131  1  0  0  0
 37 38  2  0  0  0
 37 42  1  0  0  0
 39 40  1  0  0  0
 39 41  1  0  0  0
 39132  1  0  0  0
 40133  1  0  0  0
 40134  1  0  0  0
 40135  1  0  0  0
 41136  1  0  0  0
 41137  1  0  0  0
 41138  1  0  0  0
 42 43  1  0  0  0
 42 48  1  0  0  0
 43 44  1  0  0  0
 43 46  1  0  0  0
 43139  1  0  0  0
 44 45  2  0  0  0
 44 49  1  0  0  0
 46 47  1  0  0  0
 46140  1  0  0  0
 46141  1  0  0  0
 47 48  1  0  0  0
 47142  1  0  0  0
 47143  1  0  0  0
 48144  1  0  0  0
 48145  1  0  0  0
 49 50  1  0  0  0
 49146  1  0  0  0
 50 51  1  0  0  0
 50 53  1  0  0  0
 50147  1  0  0  0
 51 52  2  0  0  0
 51 56  1  0  0  0
 53 54  1  0  0  0
 53 55  1  0  0  0
 53148  1  0  0  0
 54149  1  0  0  0
 55150  1  0  0  0
 55151  1  0  0  0
 55152  1  0  0  0
 56 57  1  0  0  0
 56153  1  0  0  0
 57 58  1  0  0  0
 57 60  1  0  0  0
 57154  1  0  0  0
 58 59  2  0  0  0
 58 63  1  0  0  0
 60 61  1  0  0  0
 60 62  1  0  0  0
 60155  1  0  0  0
 61156  1  0  0  0
 62157  1  0  0  0
 62158  1  0  0  0
 62159  1  0  0  0
 63 64  1  0  0  0
 63160  1  0  0  0
 64 65  1  0  0  0
 64 67  1  0  0  0
 64161  1  0  0  0
 65 66  2  0  0  0
 65 69  1  0  0  0
 67 68  1  0  0  0
 67162  1  0  0  0
 67163  1  0  0  0
 68164  1  0  0  0
 69 70  1  0  0  0
 69165  1  0  0  0
 70 71  1  0  0  0
 70 73  1  0  0  0
 70166  1  0  0  0
 71 72  2  0  0  0
 71 76  1  0  0  0
 73 74  1  0  0  0
 73 75  1  0  0  0
 73167  1  0  0  0
 74168  1  0  0  0
 75169  1  0  0  0
 75170  1  0  0  0
 75171  1  0  0  0
 76 77  1  0  0  0
 76172  1  0  0  0
 77 78  1  0  0  0
 77 80  1  0  0  0
 77173  1  0  0  0
 78 79  2  0  0  0
 78 83  1  0  0  0
 80 81  1  0  0  0
 80 82  1  0  0  0
 80174  1  0  0  0
 81175  1  0  0  0
 82176  1  0  0  0
 82177  1  0  0  0
 82178  1  0  0  0
 83 84  1  0  0  0
 83179  1  0  0  0
 84 85  1  0  0  0
 84 87  1  0  0  0
 84180  1  0  0  0
 85 86  2  0  0  0
 85 89  1  0  0  0
 87 88  1  0  0  0
 87181  1  0  0  0
 87182  1  0  0  0
 88183  1  0  0  0
 89 90  1  0  0  0
 89184  1  0  0  0
 90 91  1  0  0  0
 90 93  1  0  0  0
 90185  1  0  0  0
 91 92  2  0  0  0
 91 94  1  0  0  0
 93186  1  0  0  0
 93187  1  0  0  0
 93188  1  0  0  0
 94189  1  0  0  0
 94190  1  0  0  0
M  CHG  1   1   1
M  END
> <s_m_source_file>
../5ajp_ligand.sdf

> <i_m_source_file_index>
1

> <s_epik_input>
W09IXVtDQEhdKFtDSDNdKVtDQEhdKFtOSDMrXSlDKD1PKVtOSF1bQ0BASF0oW0NASF0oW09IXSlbQ0gzXSlDKD1PKU4xW0NAQEhdKFtDSDJdW0NIMl1bQ0gyXTEpQyg9TylbTkhdW0NAQEhdKFtDSDJdW09IXSlDKD1PKU4yW0NAQEhdKFtDSDJdW0NIMl1bQ0gyXTIpQyg9TylbTkhdW0NAQEhdKFtDSF0oW0NIM10pW0NIM10pQyg9TylOM1tDQEBIXShbQ0gyXVtDSDJdW0NIMl0zKUMoPU8pW05IXVtDQEBIXShbQ0BIXShbT0hdKVtDSDNdKUMoPU8pW05IXVtDQEBIXShbQ0BIXShbT0hdKVtDSDNdKUMoPU8pW05IXVtDQEBIXShbQ0gyXVtPSF0pQyg9TylbTkhdW0NAQEhdKFtDQEhdKFtPSF0pW0NIM10pQyg9TylbTkhdW0NAQEhdKFtDQEhdKFtPSF0pW0NIM10pQyg9TylbTkhdW0NAQEhdKFtDSDJdW09IXSlDKD1PKVtOSF1bQ0BASF0oW0NIM10pQyg9TylbTkgyXQ==

> <s_epik_cmdline>
J2VwaWtfYXBwJywgJy1pbWFlJywgJ2xpZ2FuZF9wcm8ubWFlJywgJy1vbWFlJywgJ2xpZ2FuZF9wcmVwLm1hZScsICctbXMnLCAnMScsICctcGgnLCAnNycsICctcGh0JywgJzAuNScsICctbnQn

> <s_epik_pKa_notes>
Molecule size exceeds maximum supported for generating protonation states

$$$$
