5ajv_ligand
                    3D
 Schrodinger Suite 2020-3.
 43 45  0  0  1  0            999 V2000
   42.4090  -38.9230   13.1090 C   0  0  0  0  0  0
   41.9540  -40.0670   12.5760 C   0  0  0  0  0  0
   42.5430  -41.2190   12.2310 C   0  0  0  0  0  0
   43.9090  -41.5440   12.3670 C   0  0  0  0  0  0
   45.0700  -41.8750   12.4710 N   0  0  0  0  0  0
   41.6500  -42.0410   11.7240 C   0  0  0  0  0  0
   41.8410  -43.2690   11.2720 N   0  0  0  0  0  0
   40.4660  -41.4230   11.7300 N   0  0  0  0  0  0
   40.6530  -40.1950   12.2620 C   0  0  0  0  0  0
   39.7890  -39.1830   12.4940 C   0  0  0  0  0  0
   40.2030  -37.9820   13.0510 C   0  0  0  0  0  0
   41.5470  -37.8550   13.3630 C   0  0  0  0  0  0
   42.0230  -36.7090   13.9150 O   0  0  0  0  0  0
   41.5300  -36.3620   15.1360 C   0  0  0  0  0  0
   41.0460  -37.2600   16.0840 C   0  0  0  0  0  0
   40.5650  -36.8190   17.3210 C   0  0  0  0  0  0
   41.5400  -35.0300   15.4560 C   0  0  0  0  0  0
   41.0750  -34.5930   16.6880 C   0  0  0  0  0  0
   40.5630  -35.4630   17.6480 C   0  0  0  0  0  0
   40.1530  -34.8950   18.8030 N   0  0  0  0  0  0
   40.1010  -35.5650   19.9760 C   0  0  0  0  0  0
   40.3730  -36.7550   20.1390 O   0  0  0  0  0  0
   39.7750  -34.7150   21.2130 C   0  0  1  0  0  0
   38.6520  -35.2900   22.0070 N   0  3  0  0  0  0
   41.1010  -34.6880   21.9680 C   0  0  0  0  0  0
   41.1200  -33.4180   22.6010 O   0  0  0  0  0  0
   43.4763  -38.8161   13.3528 H   0  0  0  0  0  0
   42.8463  -43.7147   11.2985 H   0  0  0  0  0  0
   40.9946  -43.8448   10.8695 H   0  0  0  0  0  0
   38.7379  -39.3136   12.2365 H   0  0  0  0  0  0
   39.5118  -37.1490   13.2469 H   0  0  0  0  0  0
   41.0420  -38.3263   15.8578 H   0  0  0  0  0  0
   40.1862  -37.5454   18.0400 H   0  0  0  0  0  0
   41.9175  -34.3053   14.7346 H   0  0  0  0  0  0
   41.1117  -33.5272   16.9136 H   0  0  0  0  0  0
   39.8417  -33.8400   18.8170 H   0  0  0  0  0  0
   39.3939  -33.7079   20.9882 H   0  0  0  0  0  0
   37.7324  -35.2779   21.4035 H   0  0  0  0  0  0
   38.5014  -34.6902   22.9167 H   0  0  0  0  0  0
   38.8935  -36.3261   22.2866 H   0  0  0  0  0  0
   41.1246  -35.5114   22.6970 H   0  0  0  0  0  0
   41.9310  -34.8050   21.2557 H   0  0  0  0  0  0
   41.9785  -33.1268   23.2240 H   0  0  0  0  0  0
  1  2  2  0  0  0
  1 12  1  0  0  0
  1 27  1  0  0  0
  2  3  1  0  0  0
  2  9  1  0  0  0
  3  4  1  0  0  0
  3  6  2  0  0  0
  4  5  3  0  0  0
  6  7  1  0  0  0
  6  8  1  0  0  0
  7 28  1  0  0  0
  7 29  1  0  0  0
  8  9  2  0  0  0
  9 10  1  0  0  0
 10 11  1  0  0  0
 10 30  1  0  0  0
 11 12  2  0  0  0
 11 31  1  0  0  0
 12 13  1  0  0  0
 13 14  1  0  0  0
 14 15  2  0  0  0
 14 17  1  0  0  0
 15 16  1  0  0  0
 15 32  1  0  0  0
 16 19  2  0  0  0
 16 33  1  0  0  0
 17 18  2  0  0  0
 17 34  1  0  0  0
 18 19  1  0  0  0
 18 35  1  0  0  0
 19 20  1  0  0  0
 20 21  1  0  0  0
 20 36  1  0  0  0
 21 22  2  0  0  0
 21 23  1  0  0  0
 23 24  1  0  0  0
 23 25  1  0  0  0
 23 37  1  0  0  0
 24 38  1  0  0  0
 24 39  1  0  0  0
 24 40  1  0  0  0
 25 26  1  0  0  0
 25 41  1  0  0  0
 25 42  1  0  0  0
 26 43  1  0  0  0
M  CHG  1  24   1
M  END
> <s_m_source_file>
../5ajv_ligand.sdf

> <i_m_source_file_index>
1

> <s_epik_input>
TiNDQzE9QyhbTkgyXSlOPUMoQzEyKVtDSDJdW0NIXT1DKFtDSF09MilPYzNbY0hdW2NIXWMoW2NIXVtjSF0zKVtOSF1DKD1PKVtDQEBIXShbTkgzK10pW0NIMl1bT0hd

> <s_epik_cmdline>
J2VwaWtfYXBwJywgJy1pbWFlJywgJ2xpZ2FuZF9wcm8ubWFlJywgJy1vbWFlJywgJ2xpZ2FuZF9wcmVwLm1hZScsICctbXMnLCAnMScsICctcGgnLCAnNycsICctcGh0JywgJzAuNScsICctbnQn

> <r_epik_Ionization_Penalty>
  0.2028

> <r_epik_Ionization_Penalty_Charging>
  0.2028

> <r_epik_Ionization_Penalty_Neutral>
  0.0000

> <r_epik_State_Penalty>
  0.1926

> <r_epik_Charging_Adjusted_Penalty>
0.395404820744659

> <i_epik_Tot_Q>
1

> <i_epik_Tot_abs_Q>
1

> <s_epik_Chemistry_Notes>
This compound has an imine and may undergo hydrolysis.

$$$$
