5ajx_ligand
                    3D
 Schrodinger Suite 2020-3.
 60 64  0  0  1  0            999 V2000
  -45.4810  -41.6440  -12.6990 N   0  0  0  0  0  0
  -44.3470  -41.5630  -12.5230 C   0  0  0  0  0  0
  -42.9350  -41.4000  -12.3220 C   0  0  0  0  0  0
  -42.0590  -42.3350  -11.8130 C   0  0  0  0  0  0
  -42.1790  -40.2230  -12.6210 C   0  0  0  0  0  0
  -42.4680  -38.9770  -13.1330 C   0  0  0  0  0  0
  -41.4550  -38.0410  -13.3070 C   0  0  0  0  0  0
  -40.1450  -38.3300  -12.9500 C   0  0  0  0  0  0
  -39.8090  -39.5730  -12.4270 C   0  0  0  0  0  0
  -40.8300  -40.5170  -12.2660 C   0  0  0  0  0  0
  -40.7940  -41.8280  -11.7700 N   0  0  0  0  0  0
  -39.6210  -42.5490  -11.2860 C   0  0  0  0  0  0
  -38.5620  -42.7580  -12.3240 C   0  0  0  0  0  0
  -38.6910  -43.3260  -13.5410 C   0  0  0  0  0  0
  -39.8350  -43.9200  -14.2810 C   0  0  0  0  0  0
  -37.5340  -43.3650  -14.2370 O   0  0  0  0  0  0
  -36.5580  -42.7550  -13.3710 N   0  0  0  0  0  0
  -37.1700  -42.3780  -12.1980 C   0  0  0  0  0  0
  -36.5290  -41.7860  -11.1960 C   0  0  0  0  0  0
  -41.7950  -36.7980  -13.8070 O   0  0  0  0  0  0
  -41.4430  -36.4270  -15.1160 C   0  0  0  0  0  0
  -41.5560  -35.0700  -15.4370 C   0  0  0  0  0  0
  -41.2300  -34.6210  -16.7060 C   0  0  0  0  0  0
  -40.7850  -35.5160  -17.6700 C   0  0  0  0  0  0
  -40.6720  -36.8650  -17.3460 C   0  0  0  0  0  0
  -40.9940  -37.3410  -16.0860 C   0  0  0  0  0  0
  -40.4710  -34.9590  -18.9560 N   0  0  0  0  0  0
  -40.0190  -35.5850  -20.0780 C   0  0  0  0  0  0
  -39.8100  -36.7880  -20.1320 O   0  0  0  0  0  0
  -39.7710  -34.6930  -21.3150 C   0  0  1  0  0  0
  -38.9230  -35.3270  -22.3390 N   0  3  0  0  0  0
  -39.4200  -34.9210  -23.6610 C   0  0  0  0  0  0
  -40.9240  -34.8130  -23.4820 C   0  0  0  0  0  0
  -41.0850  -34.3710  -22.0410 C   0  0  0  0  0  0
  -42.3383  -43.3380  -11.4905 H   0  0  0  0  0  0
  -43.4936  -38.7245  -13.4023 H   0  0  0  0  0  0
  -39.3713  -37.5736  -13.0813 H   0  0  0  0  0  0
  -38.7808  -39.8060  -12.1503 H   0  0  0  0  0  0
  -39.1596  -41.9866  -10.4608 H   0  0  0  0  0  0
  -39.9242  -43.5437  -10.9273 H   0  0  0  0  0  0
  -40.7431  -43.8578  -13.6634 H   0  0  0  0  0  0
  -39.6173  -44.9741  -14.5078 H   0  0  0  0  0  0
  -39.9912  -43.3677  -15.2194 H   0  0  0  0  0  0
  -37.2347  -41.5869  -10.3760 H   0  0  0  0  0  0
  -36.0972  -40.8370  -11.5467 H   0  0  0  0  0  0
  -35.7245  -42.4440  -10.8358 H   0  0  0  0  0  0
  -41.9026  -34.3621  -14.6841 H   0  0  0  0  0  0
  -41.3230  -33.5624  -16.9486 H   0  0  0  0  0  0
  -40.3208  -37.5652  -18.1040 H   0  0  0  0  0  0
  -40.9014  -38.4014  -15.8511 H   0  0  0  0  0  0
  -40.5888  -33.8795  -19.1314 H   0  0  0  0  0  0
  -39.2442  -33.8046  -20.9365 H   0  0  0  0  0  0
  -37.8818  -34.9970  -22.2085 H   0  0  0  0  0  0
  -38.9769  -36.4206  -22.2340 H   0  0  0  0  0  0
  -38.9692  -33.9578  -23.9422 H   0  0  0  0  0  0
  -39.1483  -35.6842  -24.4051 H   0  0  0  0  0  0
  -41.3256  -34.0744  -24.1914 H   0  0  0  0  0  0
  -41.3871  -35.7927  -23.6713 H   0  0  0  0  0  0
  -41.9120  -34.9145  -21.5606 H   0  0  0  0  0  0
  -41.2775  -33.2893  -21.9882 H   0  0  0  0  0  0
  1  2  3  0  0  0
  2  3  1  0  0  0
  3  4  2  0  0  0
  3  5  1  0  0  0
  4 11  1  0  0  0
  4 35  1  0  0  0
  5  6  2  0  0  0
  5 10  1  0  0  0
  6  7  1  0  0  0
  6 36  1  0  0  0
  7  8  2  0  0  0
  7 20  1  0  0  0
  8  9  1  0  0  0
  8 37  1  0  0  0
  9 10  2  0  0  0
  9 38  1  0  0  0
 10 11  1  0  0  0
 11 12  1  0  0  0
 12 13  1  0  0  0
 12 39  1  0  0  0
 12 40  1  0  0  0
 13 14  2  0  0  0
 13 18  1  0  0  0
 14 15  1  0  0  0
 14 16  1  0  0  0
 15 41  1  0  0  0
 15 42  1  0  0  0
 15 43  1  0  0  0
 16 17  1  0  0  0
 17 18  2  0  0  0
 18 19  1  0  0  0
 19 44  1  0  0  0
 19 45  1  0  0  0
 19 46  1  0  0  0
 20 21  1  0  0  0
 21 22  2  0  0  0
 21 26  1  0  0  0
 22 23  1  0  0  0
 22 47  1  0  0  0
 23 24  2  0  0  0
 23 48  1  0  0  0
 24 25  1  0  0  0
 24 27  1  0  0  0
 25 26  2  0  0  0
 25 49  1  0  0  0
 26 50  1  0  0  0
 27 28  1  0  0  0
 27 51  1  0  0  0
 28 29  2  0  0  0
 28 30  1  0  0  0
 30 31  1  0  0  0
 30 34  1  0  0  0
 30 52  1  0  0  0
 31 32  1  0  0  0
 31 53  1  0  0  0
 31 54  1  0  0  0
 32 33  1  0  0  0
 32 55  1  0  0  0
 32 56  1  0  0  0
 33 34  1  0  0  0
 33 57  1  0  0  0
 33 58  1  0  0  0
 34 59  1  0  0  0
 34 60  1  0  0  0
M  CHG  1  31   1
M  END
> <s_m_source_file>
../5ajx_ligand.sdf

> <i_m_source_file_index>
1

> <s_epik_input>
W0NIM11jMW5vYyhbQ0gzXSljMVtDSDJdbihbY0hdYzJDI04pYyhjMjMpW2NIXVtjSF1jKFtjSF0zKU9jNFtjSF1bY0hdYyhbY0hdW2NIXTQpW05IXUMoPU8pW0NASF01W05IMitdW0NIMl1bQ0gyXVtDSDJdNQ==

> <s_epik_cmdline>
J2VwaWtfYXBwJywgJy1pbWFlJywgJ2xpZ2FuZF9wcm8ubWFlJywgJy1vbWFlJywgJ2xpZ2FuZF9wcmVwLm1hZScsICctbXMnLCAnMScsICctcGgnLCAnNycsICctcGh0JywgJzAuNScsICctbnQn

> <r_lp_tautomer_probability>
1

> <r_epik_Ionization_Penalty>
  0.0568

> <r_epik_Ionization_Penalty_Charging>
  0.0568

> <r_epik_Ionization_Penalty_Neutral>
  0.0000

> <r_epik_State_Penalty>
  0.0490

> <r_epik_Charging_Adjusted_Penalty>
0.105810602595158

> <i_epik_Tot_Q>
1

> <i_epik_Tot_abs_Q>
1

$$$$
