5ajy_ligand
                    3D
 Schrodinger Suite 2020-3.
 46 49  0  0  1  0            999 V2000
  -35.8970  -42.5390  -12.3990 C   0  0  0  0  0  0
  -37.2750  -42.4580  -11.9240 N   0  0  0  0  0  0
  -41.2450  -37.1310  -13.3220 O   0  0  0  0  0  0
  -38.3690  -42.1700  -12.6400 C   0  0  0  0  0  0
  -37.5590  -42.7060  -10.6240 N   0  0  0  0  0  0
  -40.0820  -36.9030  -19.7590 O   0  0  0  0  0  0
  -39.4450  -42.2380  -11.7750 C   0  0  0  0  0  0
  -43.0810  -42.2000  -12.2720 N   0  0  0  0  0  0
  -38.8720  -42.5560  -10.5300 C   0  0  0  0  0  0
  -40.8360  -35.1360  -18.5210 N   0  0  0  0  0  0
  -40.8580  -41.9440  -12.0590 C   0  0  3  0  0  0
  -39.6120  -35.2240  -21.9130 N   0  3  0  0  0  0
  -41.9080  -42.8250  -11.9500 C   0  0  0  0  0  0
  -42.8200  -40.8850  -12.5820 C   0  0  0  0  0  0
  -41.4350  -40.6760  -12.4450 C   0  0  0  0  0  0
  -40.9130  -39.4100  -12.7020 C   0  0  0  0  0  0
  -41.7810  -38.3870  -13.0680 C   0  0  0  0  0  0
  -43.1560  -38.5930  -13.1690 C   0  0  0  0  0  0
  -43.6830  -39.8560  -12.9580 C   0  0  0  0  0  0
  -41.1640  -36.6760  -14.6350 C   0  0  0  0  0  0
  -41.0000  -37.5580  -15.6970 C   0  0  0  0  0  0
  -40.9110  -37.0670  -16.9870 C   0  0  0  0  0  0
  -40.9270  -35.6930  -17.2200 C   0  0  0  0  0  0
  -41.1030  -34.8210  -16.1490 C   0  0  0  0  0  0
  -41.2030  -35.3090  -14.8580 C   0  0  0  0  0  0
  -40.4990  -35.7480  -19.6780 C   0  0  0  0  0  0
  -40.6480  -34.9250  -20.9750 C   0  0  0  0  0  0
  -35.8654  -42.3066  -13.4737 H   0  0  0  0  0  0
  -35.5108  -43.5554  -12.2321 H   0  0  0  0  0  0
  -35.2765  -41.8161  -11.8491 H   0  0  0  0  0  0
  -38.4044  -41.9281  -13.7022 H   0  0  0  0  0  0
  -39.4373  -42.6652   -9.6044 H   0  0  0  0  0  0
  -41.0558  -34.0699  -18.6795 H   0  0  0  0  0  0
  -39.7534  -34.6190  -22.8207 H   0  0  0  0  0  0
  -39.6510  -36.2918  -22.1743 H   0  0  0  0  0  0
  -38.6343  -34.9913  -21.4659 H   0  0  0  0  0  0
  -41.9120  -43.8855  -11.6580 H   0  0  0  0  0  0
  -39.8422  -39.2245  -12.6176 H   0  0  0  0  0  0
  -43.8157  -37.7606  -13.4139 H   0  0  0  0  0  0
  -44.7497  -40.0420  -13.0831 H   0  0  0  0  0  0
  -40.9419  -38.6310  -15.5140 H   0  0  0  0  0  0
  -40.8279  -37.7582  -17.8257 H   0  0  0  0  0  0
  -41.1624  -33.7475  -16.3285 H   0  0  0  0  0  0
  -41.3120  -34.6208  -14.0198 H   0  0  0  0  0  0
  -40.6090  -33.8572  -20.7137 H   0  0  0  0  0  0
  -41.6258  -35.1576  -21.4221 H   0  0  0  0  0  0
  1  2  1  0  0  0
  1 28  1  0  0  0
  1 29  1  0  0  0
  1 30  1  0  0  0
  2  4  1  0  0  0
  2  5  1  0  0  0
  3 17  1  0  0  0
  3 20  1  0  0  0
  4  7  2  0  0  0
  4 31  1  0  0  0
  5  9  2  0  0  0
  6 26  2  0  0  0
  7  9  1  0  0  0
  7 11  1  0  0  0
  8 13  2  0  0  0
  8 14  1  0  0  0
  9 32  1  0  0  0
 10 23  1  0  0  0
 10 26  1  0  0  0
 10 33  1  0  0  0
 11 13  1  0  0  0
 11 15  1  0  0  0
 12 27  1  0  0  0
 12 34  1  0  0  0
 12 35  1  0  0  0
 12 36  1  0  0  0
 13 37  1  0  0  0
 14 15  2  0  0  0
 14 19  1  0  0  0
 15 16  1  0  0  0
 16 17  2  0  0  0
 16 38  1  0  0  0
 17 18  1  0  0  0
 18 19  2  0  0  0
 18 39  1  0  0  0
 19 40  1  0  0  0
 20 21  2  0  0  0
 20 25  1  0  0  0
 21 22  1  0  0  0
 21 41  1  0  0  0
 22 23  2  0  0  0
 22 42  1  0  0  0
 23 24  1  0  0  0
 24 25  2  0  0  0
 24 43  1  0  0  0
 25 44  1  0  0  0
 26 27  1  0  0  0
 27 45  1  0  0  0
 27 46  1  0  0  0
M  CHG  1  12   1
M  END
> <s_m_source_file>
../5ajy_ligand.sdf

> <i_m_source_file_index>
1

> <s_epik_input>
W0NIM11uMVtjSF1jKFtjSF1uMSlbQ0hdKFtDSF09TjIpYyhjMjMpW2NIXWMoW2NIXVtjSF0zKU9jNFtjSF1bY0hdYyhbY0hdW2NIXTQpW05IXUMoPU8pW0NIMl1bTkgzK10=

> <s_epik_cmdline>
J2VwaWtfYXBwJywgJy1pbWFlJywgJ2xpZ2FuZF9wcm8ubWFlJywgJy1vbWFlJywgJ2xpZ2FuZF9wcmVwLm1hZScsICctbXMnLCAnMScsICctcGgnLCAnNycsICctcGh0JywgJzAuNScsICctbnQn

> <r_lp_tautomer_probability>
1

> <r_epik_Ionization_Penalty>
  0.1825

> <r_epik_Ionization_Penalty_Charging>
  0.1685

> <r_epik_Ionization_Penalty_Neutral>
  0.0140

> <r_epik_State_Penalty>
 -0.0000

> <r_epik_Charging_Adjusted_Penalty>
0.168493611427146

> <i_epik_Tot_Q>
1

> <i_epik_Tot_abs_Q>
1

> <s_epik_Chemistry_Notes>
This compound has an imine and may undergo hydrolysis.

$$$$
