5ak0_ligand
                    3D
 Schrodinger Suite 2020-3.
 57 61  0  0  1  0            999 V2000
  -40.6960  -37.3220  -19.8390 O   0  0  0  0  0  0
  -40.8380  -36.1080  -19.7460 C   0  0  0  0  0  0
  -40.5860  -35.2090  -20.9550 C   0  0  1  0  0  0
  -39.5990  -35.8240  -21.8610 N   0  3  0  0  0  0
  -40.1120  -35.7710  -23.2410 C   0  0  0  0  0  0
  -41.6210  -35.7950  -23.0870 C   0  0  0  0  0  0
  -41.8640  -35.0150  -21.7870 C   0  0  0  0  0  0
  -41.1430  -35.4560  -18.5980 N   0  0  0  0  0  0
  -41.4110  -35.9970  -17.3110 C   0  0  0  0  0  0
  -41.4020  -37.3680  -17.0480 C   0  0  0  0  0  0
  -41.6180  -37.8380  -15.7620 C   0  0  0  0  0  0
  -41.6730  -35.1060  -16.2730 C   0  0  0  0  0  0
  -41.9270  -35.5740  -14.9920 C   0  0  0  0  0  0
  -41.9040  -36.9390  -14.7380 C   0  0  0  0  0  0
  -42.1320  -37.3600  -13.4250 O   0  0  0  0  0  0
  -42.5420  -38.6680  -13.1610 C   0  0  0  0  0  0
  -43.8890  -38.9860  -13.3000 C   0  0  0  0  0  0
  -44.3210  -40.2840  -13.0750 C   0  0  0  0  0  0
  -43.3900  -41.2440  -12.6840 C   0  0  0  0  0  0
  -43.5490  -42.5870  -12.4180 N   0  0  0  0  0  0
  -44.8200  -43.3020  -12.3850 C   0  0  0  0  0  0
  -41.5960  -39.6340  -12.8310 C   0  0  0  0  0  0
  -42.0250  -40.9400  -12.5710 C   0  0  0  0  0  0
  -41.3500  -42.1670  -12.2110 C   0  0  0  0  0  0
  -42.3230  -43.1270  -12.1420 C   0  0  0  0  0  0
  -39.9100  -42.3850  -12.0190 C   0  0  0  0  0  0
  -38.9800  -41.5130  -11.4860 C   0  0  0  0  0  0
  -37.8050  -42.1500  -11.5170 N   0  0  0  0  0  0
  -36.5090  -41.6540  -11.0700 C   0  0  0  0  0  0
  -37.9140  -43.4070  -12.0150 N   0  0  0  0  0  0
  -39.1890  -43.5550  -12.3280 C   0  0  0  0  0  0
  -40.1936  -34.2551  -20.5727 H   0  0  0  0  0  0
  -38.6496  -35.2721  -21.7979 H   0  0  0  0  0  0
  -39.4345  -36.8713  -21.5675 H   0  0  0  0  0  0
  -39.7640  -34.8472  -23.7263 H   0  0  0  0  0  0
  -39.7433  -36.6418  -23.8030 H   0  0  0  0  0  0
  -42.0862  -35.3104  -23.9581 H   0  0  0  0  0  0
  -41.9662  -36.8373  -23.0195 H   0  0  0  0  0  0
  -42.7266  -35.4128  -21.2323 H   0  0  0  0  0  0
  -42.0158  -33.9430  -21.9813 H   0  0  0  0  0  0
  -41.2087  -34.3580  -18.5899 H   0  0  0  0  0  0
  -41.2239  -38.0737  -17.8594 H   0  0  0  0  0  0
  -41.5642  -38.9065  -15.5533 H   0  0  0  0  0  0
  -41.6785  -34.0337  -16.4685 H   0  0  0  0  0  0
  -42.1441  -34.8720  -14.1869 H   0  0  0  0  0  0
  -44.6046  -38.2150  -13.5857 H   0  0  0  0  0  0
  -45.3707  -40.5489  -13.2018 H   0  0  0  0  0  0
  -45.6352  -42.6131  -12.6511 H   0  0  0  0  0  0
  -44.9910  -43.6993  -11.3736 H   0  0  0  0  0  0
  -44.7921  -44.1328  -13.1054 H   0  0  0  0  0  0
  -40.5381  -39.3772  -12.7760 H   0  0  0  0  0  0
  -42.1457  -44.1751  -11.9009 H   0  0  0  0  0  0
  -39.1672  -40.5057  -11.1141 H   0  0  0  0  0  0
  -36.6181  -40.6234  -10.7014 H   0  0  0  0  0  0
  -35.8005  -41.6694  -11.9113 H   0  0  0  0  0  0
  -36.1306  -42.2950  -10.2601 H   0  0  0  0  0  0
  -39.6219  -44.4554  -12.7638 H   0  0  0  0  0  0
  1  2  2  0  0  0
  2  3  1  0  0  0
  2  8  1  0  0  0
  3  4  1  0  0  0
  3  7  1  0  0  0
  3 32  1  0  0  0
  4  5  1  0  0  0
  4 33  1  0  0  0
  4 34  1  0  0  0
  5  6  1  0  0  0
  5 35  1  0  0  0
  5 36  1  0  0  0
  6  7  1  0  0  0
  6 37  1  0  0  0
  6 38  1  0  0  0
  7 39  1  0  0  0
  7 40  1  0  0  0
  8  9  1  0  0  0
  8 41  1  0  0  0
  9 10  2  0  0  0
  9 12  1  0  0  0
 10 11  1  0  0  0
 10 42  1  0  0  0
 11 14  2  0  0  0
 11 43  1  0  0  0
 12 13  2  0  0  0
 12 44  1  0  0  0
 13 14  1  0  0  0
 13 45  1  0  0  0
 14 15  1  0  0  0
 15 16  1  0  0  0
 16 17  1  0  0  0
 16 22  2  0  0  0
 17 18  2  0  0  0
 17 46  1  0  0  0
 18 19  1  0  0  0
 18 47  1  0  0  0
 19 20  1  0  0  0
 19 23  2  0  0  0
 20 21  1  0  0  0
 20 25  1  0  0  0
 21 48  1  0  0  0
 21 49  1  0  0  0
 21 50  1  0  0  0
 22 23  1  0  0  0
 22 51  1  0  0  0
 23 24  1  0  0  0
 24 25  2  0  0  0
 24 26  1  0  0  0
 25 52  1  0  0  0
 26 27  2  0  0  0
 26 31  1  0  0  0
 27 28  1  0  0  0
 27 53  1  0  0  0
 28 29  1  0  0  0
 28 30  1  0  0  0
 29 54  1  0  0  0
 29 55  1  0  0  0
 29 56  1  0  0  0
 30 31  2  0  0  0
 31 57  1  0  0  0
M  CHG  1   4   1
M  END
> <s_m_source_file>
../5ak0_ligand.sdf

> <i_m_source_file_index>
1

> <s_epik_input>
W0NIMl0xW0NIMl1bQ0gyXVtOSDIrXVtDQEBIXTFDKD1PKVtOSF1jMltjSF1bY0hdYyhbY0hdW2NIXTIpT2MoW2NIXVtjSF0zKVtjSF1jKGMzNCljKFtjSF1uNFtDSDNdKS1jNVtjSF1uKFtDSDNdKW5bY0hdNQ==

> <s_epik_cmdline>
J2VwaWtfYXBwJywgJy1pbWFlJywgJ2xpZ2FuZF9wcm8ubWFlJywgJy1vbWFlJywgJ2xpZ2FuZF9wcmVwLm1hZScsICctbXMnLCAnMScsICctcGgnLCAnNycsICctcGh0JywgJzAuNScsICctbnQn

> <r_lp_tautomer_probability>
1

> <r_epik_Ionization_Penalty>
  0.0569

> <r_epik_Ionization_Penalty_Charging>
  0.0568

> <r_epik_Ionization_Penalty_Neutral>
  0.0001

> <r_epik_State_Penalty>
  0.0490

> <r_epik_Charging_Adjusted_Penalty>
0.105810602595158

> <i_epik_Tot_Q>
1

> <i_epik_Tot_abs_Q>
1

$$$$
