5ak2_ligand
                    3D
 Schrodinger Suite 2020-3.
 50 53  0  0  1  0            999 V2000
   31.4900    8.6850    8.6410 C   0  0  0  0  0  0
   32.5470    9.5940    9.2250 C   0  0  0  0  0  0
   33.7400    9.7720    8.5340 C   0  0  0  0  0  0
   34.6990   10.5960    9.0590 C   0  0  0  0  0  0
   34.5640   11.2630   10.2410 C   0  0  0  0  0  0
   33.3820   11.1090   10.9350 C   0  0  0  0  0  0
   32.3790   10.2840   10.4330 C   0  0  0  0  0  0
   31.1770   10.1360   11.2320 C   0  0  0  0  0  0
   30.2720   11.1370   11.3330 C   0  0  0  0  0  0
   29.1170   10.9400   12.1780 C   0  0  0  0  0  0
   28.1150   11.8950   12.3480 C   0  0  0  0  0  0
   27.0290   11.6310   13.1620 C   0  0  0  0  0  0
   26.9450   10.4210   13.8360 C   0  0  0  0  0  0
   27.9300    9.4540   13.6900 C   0  0  0  0  0  0
   28.9920    9.7260   12.8550 C   0  0  0  0  0  0
   29.9390    8.7330   12.7400 O   0  0  0  0  0  0
   31.0600    8.8980   11.9750 C   0  0  0  0  0  0
   31.8440    7.9830   11.9530 O   0  0  0  0  0  0
   25.9170   10.1280   14.6730 O   0  0  0  0  0  0
   30.3460   12.4140   10.5430 C   0  0  0  0  0  0
   30.8380   13.6500   11.2330 C   0  0  0  0  0  0
   31.0550   14.7820   10.4690 C   0  0  0  0  0  0
   31.4890   15.9520   11.0520 C   0  0  0  0  0  0
   31.7340   16.0150   12.4190 C   0  0  0  0  0  0
   31.5230   14.8680   13.1810 C   0  0  0  0  0  0
   31.0880   13.6960   12.5950 C   0  0  0  0  0  0
   32.1410   17.2860   12.9870 C   0  0  0  0  0  0
   31.7370   17.6760   14.1850 C   0  0  0  0  0  0
   32.1320   19.0360   14.5710 C   0  0  0  0  0  0
   32.6960   19.7440   13.7400 O   0  0  0  0  0  0
   31.7700   19.4630   15.7370 O   0  5  0  0  0  0
   35.8570   10.7490    8.3650 F   0  0  0  0  0  0
   31.8538    8.2611    7.6934 H   0  0  0  0  0  0
   30.5718    9.2618    8.4561 H   0  0  0  0  0  0
   31.2752    7.8706    9.3485 H   0  0  0  0  0  0
   33.9098    9.2618    7.5859 H   0  0  0  0  0  0
   35.3637   11.8967   10.6245 H   0  0  0  0  0  0
   33.2328   11.6342   11.8784 H   0  0  0  0  0  0
   28.1884   12.8547   11.8364 H   0  0  0  0  0  0
   26.2388   12.3734   13.2743 H   0  0  0  0  0  0
   27.8652    8.5047   14.2217 H   0  0  0  0  0  0
   25.1081   10.8574   14.8269 H   0  0  0  0  0  0
   31.0257   12.2779    9.6889 H   0  0  0  0  0  0
   29.3430   12.6763   10.1752 H   0  0  0  0  0  0
   30.8807   14.7480    9.3936 H   0  0  0  0  0  0
   31.6419   16.8376   10.4352 H   0  0  0  0  0  0
   31.7040   14.8962   14.2555 H   0  0  0  0  0  0
   30.9409   12.8049   13.2052 H   0  0  0  0  0  0
   32.8040   17.9321   12.3928 H   0  0  0  0  0  0
   31.1471   16.9944   14.8154 H   0  0  0  0  0  0
  1  2  1  0  0  0
  1 33  1  0  0  0
  1 34  1  0  0  0
  1 35  1  0  0  0
  2  3  2  0  0  0
  2  7  1  0  0  0
  3  4  1  0  0  0
  3 36  1  0  0  0
  4  5  2  0  0  0
  4 32  1  0  0  0
  5  6  1  0  0  0
  5 37  1  0  0  0
  6  7  2  0  0  0
  6 38  1  0  0  0
  7  8  1  0  0  0
  8  9  2  0  0  0
  8 17  1  0  0  0
  9 10  1  0  0  0
  9 20  1  0  0  0
 10 11  2  0  0  0
 10 15  1  0  0  0
 11 12  1  0  0  0
 11 39  1  0  0  0
 12 13  2  0  0  0
 12 40  1  0  0  0
 13 14  1  0  0  0
 13 19  1  0  0  0
 14 15  2  0  0  0
 14 41  1  0  0  0
 15 16  1  0  0  0
 16 17  1  0  0  0
 17 18  2  0  0  0
 19 42  1  0  0  0
 20 21  1  0  0  0
 20 43  1  0  0  0
 20 44  1  0  0  0
 21 22  2  0  0  0
 21 26  1  0  0  0
 22 23  1  0  0  0
 22 45  1  0  0  0
 23 24  2  0  0  0
 23 46  1  0  0  0
 24 25  1  0  0  0
 24 27  1  0  0  0
 25 26  2  0  0  0
 25 47  1  0  0  0
 26 48  1  0  0  0
 27 28  2  0  0  0
 27 49  1  0  0  0
 28 29  1  0  0  0
 28 50  1  0  0  0
 29 30  2  0  0  0
 29 31  1  0  0  0
M  CHG  1  31  -1
M  END
> <s_m_source_file>
../5ak2_ligand.sdf

> <i_m_source_file_index>
1

> <s_epik_input>
W0NIM11jMVtjSF1jKEYpW2NIXVtjSF1jMS1jKGMoPU8pb2MoYzIzKVtjSF1jKFtPSF0pW2NIXVtjSF0zKWMyW0NIMl1jNFtjSF1bY0hdYyhbY0hdW2NIXTQpL1tDSF09W0NIXS9DKD1PKVtPSF0=

> <s_epik_cmdline>
J2VwaWtfYXBwJywgJy1pbWFlJywgJ2xpZ2FuZF9wcm8ubWFlJywgJy1vbWFlJywgJ2xpZ2FuZF9wcmVwLm1hZScsICctbXMnLCAnMScsICctcGgnLCAnNycsICctcGh0JywgJzAuNScsICctbnQn

> <r_epik_Ionization_Penalty>
  0.0144

> <r_epik_Ionization_Penalty_Charging>
  0.0019

> <r_epik_Ionization_Penalty_Neutral>
  0.0124

> <r_epik_State_Penalty>
  0.0096

> <r_epik_Charging_Adjusted_Penalty>
0.0115742402795406

> <i_epik_Tot_Q>
-1

> <i_epik_Tot_abs_Q>
1

$$$$
