5ak3_ligand
                    3D
 Schrodinger Suite 2020-3.
 22 23  0  0  1  0            999 V2000
  -13.8210  -13.9230   26.9620 C   0  0  0  0  0  0
  -13.0560  -14.6210   27.9840 C   0  0  0  0  0  0
  -11.9430  -13.8950   28.6260 C   0  0  0  0  0  0
  -11.5820  -12.5070   28.2490 C   0  0  0  0  0  0
  -12.3610  -11.8390   27.2230 C   0  0  0  0  0  0
  -13.5090  -12.5350   26.5480 C   0  0  0  0  0  0
  -11.8030  -10.4470   27.0280 C   0  0  0  0  0  0
  -10.5860  -10.3240   27.9860 C   0  0  0  0  0  0
  -10.4680  -11.6080   28.7930 C   0  0  0  0  0  0
   -9.3600  -10.2620   27.2300 N   0  3  0  0  0  0
  -14.6533  -14.4396   26.4839 H   0  0  0  0  0  0
  -13.2969  -15.6459   28.2661 H   0  0  0  0  0  0
  -11.3667  -14.3961   29.4037 H   0  0  0  0  0  0
  -14.0945  -12.0339   25.7771 H   0  0  0  0  0  0
  -11.4939  -10.3194   25.9801 H   0  0  0  0  0  0
  -12.5757   -9.7042   27.2754 H   0  0  0  0  0  0
  -10.6719   -9.4148   28.5991 H   0  0  0  0  0  0
  -10.6292  -11.4336   29.8671 H   0  0  0  0  0  0
   -9.4949  -12.0986   28.6432 H   0  0  0  0  0  0
   -9.3576   -9.3539   26.6092 H   0  0  0  0  0  0
   -9.2828  -11.1485   26.5833 H   0  0  0  0  0  0
   -8.5043  -10.2363   27.9207 H   0  0  0  0  0  0
  1  2  2  0  0  0
  1  6  1  0  0  0
  1 11  1  0  0  0
  2  3  1  0  0  0
  2 12  1  0  0  0
  3  4  2  0  0  0
  3 13  1  0  0  0
  4  5  1  0  0  0
  4  9  1  0  0  0
  5  6  2  0  0  0
  5  7  1  0  0  0
  6 14  1  0  0  0
  7  8  1  0  0  0
  7 15  1  0  0  0
  7 16  1  0  0  0
  8  9  1  0  0  0
  8 10  1  0  0  0
  8 17  1  0  0  0
  9 18  1  0  0  0
  9 19  1  0  0  0
 10 20  1  0  0  0
 10 21  1  0  0  0
 10 22  1  0  0  0
M  CHG  1  10   1
M  END
> <s_m_source_file>
../5ak3_ligand.sdf

> <i_m_source_file_index>
1

> <s_epik_input>
W2NIXTFbY0hdW2NIXVtjSF1jKGMxMilbQ0gyXVtDSF0oW0NIMl0yKVtOSDMrXQ==

> <s_epik_cmdline>
J2VwaWtfYXBwJywgJy1pbWFlJywgJ2xpZ2FuZF9wcm8ubWFlJywgJy1vbWFlJywgJ2xpZ2FuZF9wcmVwLm1hZScsICctbXMnLCAnMScsICctcGgnLCAnNycsICctcGh0JywgJzAuNScsICctbnQn

> <r_lp_tautomer_probability>
1

> <r_epik_Ionization_Penalty>
  0.0026

> <r_epik_Ionization_Penalty_Charging>
  0.0026

> <r_epik_Ionization_Penalty_Neutral>
  0.0000

> <r_epik_State_Penalty>
 -0.0000

> <r_epik_Charging_Adjusted_Penalty>
0.00257546067638225

> <i_epik_Tot_Q>
1

> <i_epik_Tot_abs_Q>
1

$$$$
