5ak4_ligand
                    3D
 Schrodinger Suite 2020-3.
 21 22  0  0  1  0            999 V2000
   17.5870   10.3060   13.1330 C   0  0  0  0  0  0
   19.0550   10.4390   13.2610 C   0  0  0  0  0  0
   16.7310    9.9700   12.0780 C   0  0  0  0  0  0
   17.0020    9.6400   10.7120 C   0  0  0  0  0  0
   15.9500    9.7800    9.7620 C   0  0  0  0  0  0
   18.2860    9.1970   10.2850 C   0  0  0  0  0  0
   16.1870    9.4770    8.3970 C   0  0  0  0  0  0
   18.5280    8.8900    8.9040 C   0  0  0  0  0  0
   17.4710    9.0330    7.9670 C   0  0  0  0  0  0
   15.4360   10.0290   12.6040 C   0  0  0  0  0  0
   15.5700   10.3890   13.9150 N   0  0  0  0  0  0
   16.8500   10.5460   14.2170 N   0  0  0  0  0  0
   19.5293   10.2127   12.2946 H   0  0  0  0  0  0
   19.4218    9.7357   14.0231 H   0  0  0  0  0  0
   19.3052   11.4675   13.5604 H   0  0  0  0  0  0
   14.9652   10.1192   10.0833 H   0  0  0  0  0  0
   19.0910    9.0902   11.0121 H   0  0  0  0  0  0
   15.3809    9.5845    7.6712 H   0  0  0  0  0  0
   19.5115    8.5511    8.5785 H   0  0  0  0  0  0
   17.6421    8.8025    6.9155 H   0  0  0  0  0  0
   14.5054    9.8278   12.0734 H   0  0  0  0  0  0
  1  2  1  0  0  0
  1  3  2  0  0  0
  1 12  1  0  0  0
  2 13  1  0  0  0
  2 14  1  0  0  0
  2 15  1  0  0  0
  3  4  1  0  0  0
  3 10  1  0  0  0
  4  5  2  0  0  0
  4  6  1  0  0  0
  5  7  1  0  0  0
  5 16  1  0  0  0
  6  8  2  0  0  0
  6 17  1  0  0  0
  7  9  2  0  0  0
  7 18  1  0  0  0
  8  9  1  0  0  0
  8 19  1  0  0  0
  9 20  1  0  0  0
 10 11  1  0  0  0
 10 21  1  0  0  0
 11 12  2  0  0  0
M  END
> <s_m_source_file>
../5ak4_ligand.sdf

> <i_m_source_file_index>
1

> <s_epik_input>
TjE9TltDSDJdQyg9QzFbQ0gzXSljMltjSF1bY0hdW2NIXVtjSF1bY0hdMg==

> <s_epik_cmdline>
J2VwaWtfYXBwJywgJy1pbWFlJywgJ2xpZ2FuZF9wcm8ubWFlJywgJy1vbWFlJywgJ2xpZ2FuZF9wcmVwLm1hZScsICctbXMnLCAnMScsICctcGgnLCAnNycsICctcGh0JywgJzAuNScsICctbnQn

> <r_lp_tautomer_probability>
1

> <r_epik_Ionization_Penalty>
  0.0000

> <r_epik_Ionization_Penalty_Charging>
  0.0000

> <r_epik_Ionization_Penalty_Neutral>
  0.0000

> <r_epik_State_Penalty>
 -0.0000

> <r_epik_Charging_Adjusted_Penalty>
0

> <i_epik_Tot_Q>
0

> <i_epik_Tot_abs_Q>
0

$$$$
