5ak5_ligand
                    3D
 Schrodinger Suite 2020-3.
 29 30  0  0  1  0            999 V2000
  -16.3420   -9.3540    8.9110 N   0  0  0  0  0  0
  -15.3560   -9.2400    8.0630 C   0  0  0  0  0  0
  -13.9030   -9.3340    8.4700 C   0  0  0  0  0  0
  -14.5930   -6.9690    5.5570 C   0  0  0  0  0  0
  -15.7300   -7.4870    6.4150 C   0  0  0  0  0  0
  -15.6320   -8.9880    6.6160 C   0  0  0  0  0  0
  -16.0380   -9.5740   10.2390 C   0  0  0  0  0  0
  -14.7800   -9.6770   10.6750 C   0  0  0  0  0  0
  -17.1050   -9.7190   11.2320 C   0  0  0  0  0  0
  -18.3990   -9.3400   10.9390 C   0  0  0  0  0  0
  -16.8720  -10.2470   12.4910 C   0  0  0  0  0  0
  -17.7950  -10.4200   13.4490 N   0  0  0  0  0  0
  -19.0290  -10.0310   13.1210 C   0  0  0  0  0  0
  -19.3790   -9.4860   11.9020 C   0  0  0  0  0  0
  -13.0140   -9.2100    7.6330 O   0  0  0  0  0  0
  -13.7270   -9.5540    9.8110 N   0  0  0  0  0  0
  -14.6945   -5.8809    5.4318 H   0  0  0  0  0  0
  -14.6261   -7.4562    4.5713 H   0  0  0  0  0  0
  -13.6333   -7.1940    6.0452 H   0  0  0  0  0  0
  -15.6969   -6.9998    7.4007 H   0  0  0  0  0  0
  -16.6897   -7.2620    5.9268 H   0  0  0  0  0  0
  -14.8127   -9.4010    6.0091 H   0  0  0  0  0  0
  -16.5781   -9.4728    6.3333 H   0  0  0  0  0  0
  -14.5901   -9.8614   11.7324 H   0  0  0  0  0  0
  -18.6452   -8.9303    9.9594 H   0  0  0  0  0  0
  -15.8505  -10.5480   12.7235 H   0  0  0  0  0  0
  -19.8144  -10.1520   13.8671 H   0  0  0  0  0  0
  -20.4055   -9.1777   11.7036 H   0  0  0  0  0  0
  -12.7117   -9.6375   10.2261 H   0  0  0  0  0  0
  1  2  2  0  0  0
  1  7  1  0  0  0
  2  3  1  0  0  0
  2  6  1  0  0  0
  3 15  2  0  0  0
  3 16  1  0  0  0
  4  5  1  0  0  0
  4 17  1  0  0  0
  4 18  1  0  0  0
  4 19  1  0  0  0
  5  6  1  0  0  0
  5 20  1  0  0  0
  5 21  1  0  0  0
  6 22  1  0  0  0
  6 23  1  0  0  0
  7  8  2  0  0  0
  7  9  1  0  0  0
  8 16  1  0  0  0
  8 24  1  0  0  0
  9 10  2  0  0  0
  9 11  1  0  0  0
 10 14  1  0  0  0
 10 25  1  0  0  0
 11 12  2  0  0  0
 11 26  1  0  0  0
 12 13  1  0  0  0
 13 14  2  0  0  0
 13 27  1  0  0  0
 14 28  1  0  0  0
 16 29  1  0  0  0
M  END
> <s_m_source_file>
../5ak5_ligand.sdf

> <i_m_source_file_index>
1

> <s_epik_input>
W0NIM11bQ0gyXVtDSDJdYzFuYyhbY0hdW25IXWMxPU8pLWMyW2NIXVtjSF1bY0hdbltjSF0y

> <s_epik_cmdline>
J2VwaWtfYXBwJywgJy1pbWFlJywgJ2xpZ2FuZF9wcm8ubWFlJywgJy1vbWFlJywgJ2xpZ2FuZF9wcmVwLm1hZScsICctbXMnLCAnMScsICctcGgnLCAnNycsICctcGh0JywgJzAuNScsICctbnQn

> <r_lp_tautomer_probability>
1

> <r_epik_Ionization_Penalty>
  0.0186

> <r_epik_Ionization_Penalty_Charging>
  0.0144

> <r_epik_Ionization_Penalty_Neutral>
  0.0042

> <r_epik_State_Penalty>
 -0.0000

> <r_epik_Charging_Adjusted_Penalty>
0.014368230721166

> <i_epik_Tot_Q>
0

> <i_epik_Tot_abs_Q>
0

$$$$
