5akh_ligand
                    3D
 Schrodinger Suite 2020-3.
 30 32  0  0  1  0            999 V2000
  -18.7800  -10.9400   13.6130 C   0  0  0  0  0  0
  -17.6060  -11.0140   12.8930 C   0  0  0  0  0  0
  -19.6700   -9.9110   13.3970 C   0  0  0  0  0  0
  -17.9330   -9.8160    8.5430 C   0  0  0  0  0  0
  -16.2070   -8.3250    7.8650 C   0  0  0  0  0  0
  -18.1990   -9.0170   11.7510 C   0  0  0  0  0  0
  -18.6730   -9.3380    7.4810 C   0  0  0  0  0  0
  -17.0260   -7.9080    6.8360 C   0  0  0  0  0  0
  -14.4660   -9.9110    9.6570 C   0  0  0  0  0  0
  -17.3120  -10.0560   11.9410 C   0  0  0  0  0  0
  -16.6710   -9.2930    8.7400 C   0  0  0  0  0  0
  -15.8250   -9.7530    9.8230 C   0  0  0  0  0  0
  -19.3800   -8.9450   12.4590 C   0  0  0  0  0  0
  -16.0730  -10.0900   11.1840 C   0  0  3  0  0  0
  -20.2870   -7.7990   12.1890 C   0  0  0  0  0  0
  -18.2580   -8.3950    6.6210 N   0  0  0  0  0  0
  -14.9290  -10.4340   11.7990 N   0  0  0  0  0  0
  -13.9870  -10.3410   10.8570 N   0  0  0  0  0  0
  -21.5930   -8.0110   12.4920 F   0  0  0  0  0  0
  -19.9370   -6.6800   12.8720 F   0  0  0  0  0  0
  -20.2530   -7.4640   10.8750 F   0  0  0  0  0  0
  -19.0055  -11.7020   14.3591 H   0  0  0  0  0  0
  -16.9076  -11.8308   13.0753 H   0  0  0  0  0  0
  -20.5988   -9.8615   13.9654 H   0  0  0  0  0  0
  -18.3329  -10.5832    9.2061 H   0  0  0  0  0  0
  -15.2110   -7.8995    7.9873 H   0  0  0  0  0  0
  -17.9617   -8.2375   11.0270 H   0  0  0  0  0  0
  -19.6677   -9.7571    7.3294 H   0  0  0  0  0  0
  -16.6514   -7.1398    6.1596 H   0  0  0  0  0  0
  -14.0017   -9.6925    8.6840 H   0  0  0  0  0  0
  1  2  2  0  0  0
  1  3  1  0  0  0
  1 22  1  0  0  0
  2 10  1  0  0  0
  2 23  1  0  0  0
  3 13  2  0  0  0
  3 24  1  0  0  0
  4  7  2  0  0  0
  4 11  1  0  0  0
  4 25  1  0  0  0
  5  8  1  0  0  0
  5 11  2  0  0  0
  5 26  1  0  0  0
  6 10  2  0  0  0
  6 13  1  0  0  0
  6 27  1  0  0  0
  7 16  1  0  0  0
  7 28  1  0  0  0
  8 16  2  0  0  0
  8 29  1  0  0  0
  9 12  2  0  0  0
  9 18  1  0  0  0
  9 30  1  0  0  0
 10 14  1  0  0  0
 11 12  1  0  0  0
 12 14  1  0  0  0
 13 15  1  0  0  0
 14 17  1  0  0  0
 15 19  1  0  0  0
 15 20  1  0  0  0
 15 21  1  0  0  0
 17 18  2  0  0  0
M  END
> <s_m_source_file>
../5akh_ligand.sdf

> <i_m_source_file_index>
1

> <s_epik_input>
RkMoRikoRiljKFtjSF0xKVtjSF1bY0hdW2NIXWMxW0NIXTJOPU5bQ0hdPUMyYzNbY0hdW2NIXW5bY0hdW2NIXTM=

> <s_epik_cmdline>
J2VwaWtfYXBwJywgJy1pbWFlJywgJ2xpZ2FuZF9wcm8ubWFlJywgJy1vbWFlJywgJ2xpZ2FuZF9wcmVwLm1hZScsICctbXMnLCAnMScsICctcGgnLCAnNycsICctcGh0JywgJzAuNScsICctbnQn

> <r_lp_tautomer_probability>
1

> <r_epik_Ionization_Penalty>
  0.0023

> <r_epik_Ionization_Penalty_Charging>
  0.0000

> <r_epik_Ionization_Penalty_Neutral>
  0.0023

> <r_epik_State_Penalty>
 -0.0000

> <r_epik_Charging_Adjusted_Penalty>
0

> <i_epik_Tot_Q>
0

> <i_epik_Tot_abs_Q>
0

$$$$
