5aki_ligand
                    3D
 Schrodinger Suite 2020-3.
 41 43  0  0  1  0            999 V2000
   14.7200  -12.7930  -18.4480 C   0  0  0  0  0  0
   13.9950  -13.3120  -19.4990 C   0  0  0  0  0  0
   13.4000  -12.5560  -20.4330 N   0  3  0  0  0  0
   13.5320  -11.2270  -20.2750 C   0  0  0  0  0  0
   14.2130  -10.6050  -19.2470 C   0  0  0  0  0  0
   14.8150  -11.4190  -18.3090 C   0  0  0  0  0  0
   15.6530  -10.9310  -17.2510 C   0  0  0  0  0  0
   16.0370  -11.7180  -16.1600 C   0  0  0  0  0  0
   17.0550  -11.0630  -15.5330 C   0  0  3  0  0  0
   17.2070   -9.8840  -16.1930 N   0  3  0  0  0  0
   16.4040   -9.8190  -17.2750 N   0  0  0  0  0  0
   17.7510  -11.4810  -14.4660 N   0  3  0  0  0  0
   18.9790  -10.8240  -14.0880 C   0  0  0  0  0  0
   18.6520   -9.7970  -13.0410 C   0  0  0  0  0  0
   17.8960  -10.4490  -11.8910 C   0  0  0  0  0  0
   17.6980   -9.4890  -10.7260 C   0  0  0  0  0  0
   19.0100   -8.8340  -10.3270 C   0  0  0  0  0  0
   19.6730   -8.1410  -11.5100 C   0  0  0  0  0  0
   19.9640   -9.1590  -12.5980 C   0  0  0  0  0  0
   15.2119  -13.4555  -17.7359 H   0  0  0  0  0  0
   13.9002  -14.3952  -19.5750 H   0  0  0  0  0  0
   13.0618  -10.5867  -21.0213 H   0  0  0  0  0  0
   14.2724   -9.5187  -19.1794 H   0  0  0  0  0  0
   15.5241  -12.6706  -15.9614 H   0  0  0  0  0  0
   17.1248  -11.4004  -13.5652 H   0  0  0  0  0  0
   19.6832  -11.5668  -13.6851 H   0  0  0  0  0  0
   19.4223  -10.3394  -14.9704 H   0  0  0  0  0  0
   17.9913   -9.0181  -13.4495 H   0  0  0  0  0  0
   16.9055  -10.7748  -12.2413 H   0  0  0  0  0  0
   18.4612  -11.3200  -11.5277 H   0  0  0  0  0  0
   16.9862   -8.7022  -11.0162 H   0  0  0  0  0  0
   17.3025  -10.0400   -9.8600 H   0  0  0  0  0  0
   18.8221   -8.0831   -9.5454 H   0  0  0  0  0  0
   19.6997   -9.5994   -9.9418 H   0  0  0  0  0  0
   19.0000   -7.3657  -11.9050 H   0  0  0  0  0  0
   20.6148   -7.6767  -11.1822 H   0  0  0  0  0  0
   20.6370   -9.9371  -12.2088 H   0  0  0  0  0  0
   20.4376   -8.6605  -13.4566 H   0  0  0  0  0  0
   17.8708   -9.0414  -15.9493 H   0  0  0  0  0  0
   12.8499  -13.0325  -21.2578 H   0  0  0  0  0  0
   18.0508  -12.5293  -14.6115 H   0  0  0  0  0  0
  1  2  2  0  0  0
  1  6  1  0  0  0
  1 20  1  0  0  0
  2  3  1  0  0  0
  2 21  1  0  0  0
  3  4  2  0  0  0
  3 40  1  0  0  0
  4  5  1  0  0  0
  4 22  1  0  0  0
  5  6  2  0  0  0
  5 23  1  0  0  0
  6  7  1  0  0  0
  7  8  2  0  0  0
  7 11  1  0  0  0
  8  9  1  0  0  0
  8 24  1  0  0  0
  9 10  1  0  0  0
  9 12  1  0  0  0
 10 11  2  0  0  0
 10 39  1  0  0  0
 12 13  1  0  0  0
 12 25  1  0  0  0
 12 41  1  0  0  0
 13 14  1  0  0  0
 13 26  1  0  0  0
 13 27  1  0  0  0
 14 15  1  0  0  0
 14 19  1  0  0  0
 14 28  1  0  0  0
 15 16  1  0  0  0
 15 29  1  0  0  0
 15 30  1  0  0  0
 16 17  1  0  0  0
 16 31  1  0  0  0
 16 32  1  0  0  0
 17 18  1  0  0  0
 17 33  1  0  0  0
 17 34  1  0  0  0
 18 19  1  0  0  0
 18 35  1  0  0  0
 18 36  1  0  0  0
 19 37  1  0  0  0
 19 38  1  0  0  0
M  CHG  3   3   1  10   1  12   1
M  END
> <s_m_source_file>
../5aki_ligand.sdf

> <i_m_source_file_index>
1

> <s_epik_input>
W2NIXTFbY0hdbltjSF1bY0hdYzFDMj1bQ0hdW0NIXShOPU4yKVtOSF1bQ0gyXVtDSF0zW0NIMl1bQ0gyXVtDSDJdW0NIMl1bQ0gyXTM=

> <s_epik_cmdline>
J2VwaWtfYXBwJywgJy1pbWFlJywgJ2xpZ2FuZF9wcm8ubWFlJywgJy1vbWFlJywgJ2xpZ2FuZF9wcmVwLm1hZScsICctbXMnLCAnMScsICctcGgnLCAnNycsICctcGh0JywgJzAuNScsICctbnQn

> <r_epik_Ionization_Penalty>
  0.2932

> <r_epik_Ionization_Penalty_Charging>
  0.2932

> <r_epik_Ionization_Penalty_Neutral>
  0.0000

> <r_epik_State_Penalty>
  0.2846

> <r_epik_Charging_Adjusted_Penalty>
0.577850049442203

> <i_epik_Tot_Q>
3

> <i_epik_Tot_abs_Q>
3

$$$$
