5aku_ligand
                    3D
 Schrodinger Suite 2020-3.
 41 43  0  0  1  0            999 V2000
  -53.7430  -41.2930   23.3490 C   0  0  0  0  0  0
  -53.6620  -41.8850   16.2650 N   0  0  0  0  0  0
  -53.4100  -41.1010   14.1910 O   0  0  0  0  0  0
  -53.3180  -42.6560   22.7970 C   0  0  0  0  0  0
  -55.4750  -43.5310   16.6320 N   0  0  0  0  0  0
  -54.1250  -43.7030   23.5930 C   0  0  0  0  0  0
  -51.8370  -42.8900   23.0860 C   0  0  0  0  0  0
  -53.5670  -42.7040   21.3690 C   0  0  0  0  0  0
  -54.5780  -43.4840   20.8060 C   0  0  0  0  0  0
  -54.8160  -43.5300   19.4380 C   0  0  0  0  0  0
  -54.0390  -42.7990   18.5480 C   0  0  0  0  0  0
  -53.0320  -41.9940   19.0920 C   0  0  0  0  0  0
  -52.7950  -41.9570   20.4680 C   0  0  0  0  0  0
  -54.3210  -42.8200   17.1860 C   0  0  2  0  0  0
  -53.8860  -41.9810   14.9130 C   0  0  0  0  0  0
  -54.7350  -42.9700   14.4070 C   0  0  0  0  0  0
  -54.7980  -43.2110   13.0470 C   0  0  0  0  0  0
  -55.6840  -44.1760   12.5490 C   0  0  0  0  0  0
  -56.4990  -44.8830   13.4220 C   0  0  0  0  0  0
  -56.4370  -44.6570   14.7870 C   0  0  0  0  0  0
  -55.5430  -43.7150   15.2710 C   0  0  0  0  0  0
  -53.5527  -41.2605   24.4319 H   0  0  0  0  0  0
  -54.8158  -41.1394   23.1605 H   0  0  0  0  0  0
  -53.1659  -40.4997   22.8513 H   0  0  0  0  0  0
  -52.9894  -41.1083   16.6578 H   0  0  0  0  0  0
  -56.2638  -43.9049   17.3013 H   0  0  0  0  0  0
  -53.8892  -43.6112   24.6635 H   0  0  0  0  0  0
  -53.8605  -44.7122   23.2445 H   0  0  0  0  0  0
  -55.2006  -43.5319   23.4384 H   0  0  0  0  0  0
  -51.6646  -42.8506   24.1717 H   0  0  0  0  0  0
  -51.2392  -42.1103   22.5913 H   0  0  0  0  0  0
  -51.5403  -43.8776   22.7032 H   0  0  0  0  0  0
  -55.2065  -44.0814   21.4664 H   0  0  0  0  0  0
  -55.6267  -44.1506   19.0562 H   0  0  0  0  0  0
  -52.4200  -41.3833   18.4283 H   0  0  0  0  0  0
  -51.9890  -41.3312   20.8513 H   0  0  0  0  0  0
  -53.6394  -43.6040   17.5476 H   0  0  0  0  0  0
  -54.1597  -42.6514   12.3633 H   0  0  0  0  0  0
  -55.7329  -44.3710   11.4777 H   0  0  0  0  0  0
  -57.1952  -45.6240   13.0292 H   0  0  0  0  0  0
  -57.0811  -45.2112   15.4698 H   0  0  0  0  0  0
  1  4  1  0  0  0
  1 22  1  0  0  0
  1 23  1  0  0  0
  1 24  1  0  0  0
  2 14  1  0  0  0
  2 15  1  0  0  0
  2 25  1  0  0  0
  3 15  2  0  0  0
  4  6  1  0  0  0
  4  7  1  0  0  0
  4  8  1  0  0  0
  5 14  1  0  0  0
  5 21  1  0  0  0
  5 26  1  0  0  0
  6 27  1  0  0  0
  6 28  1  0  0  0
  6 29  1  0  0  0
  7 30  1  0  0  0
  7 31  1  0  0  0
  7 32  1  0  0  0
  8  9  2  0  0  0
  8 13  1  0  0  0
  9 10  1  0  0  0
  9 33  1  0  0  0
 10 11  2  0  0  0
 10 34  1  0  0  0
 11 12  1  0  0  0
 11 14  1  0  0  0
 12 13  2  0  0  0
 12 35  1  0  0  0
 13 36  1  0  0  0
 14 37  1  0  0  0
 15 16  1  0  0  0
 16 17  2  0  0  0
 16 21  1  0  0  0
 17 18  1  0  0  0
 17 38  1  0  0  0
 18 19  2  0  0  0
 18 39  1  0  0  0
 19 20  1  0  0  0
 19 40  1  0  0  0
 20 21  2  0  0  0
 20 41  1  0  0  0
M  END
> <s_m_source_file>
../5aku_ligand.sdf

> <i_m_source_file_index>
1

> <s_epik_input>
W0NIM11DKFtDSDNdKShbQ0gzXSljMVtjSF1bY0hdYyhbY0hdW2NIXTEpW0NASF0oW05IXUMyPU8pW05IXWMoYzIzKVtjSF1bY0hdW2NIXVtjSF0z

> <s_epik_cmdline>
J2VwaWtfYXBwJywgJy1pbWFlJywgJ2xpZ2FuZF9wcm8ubWFlJywgJy1vbWFlJywgJ2xpZ2FuZF9wcmVwLm1hZScsICctbXMnLCAnMScsICctcGgnLCAnNycsICctcGh0JywgJzAuNScsICctbnQn

> <r_lp_tautomer_probability>
1

> <r_epik_Ionization_Penalty>
  0.0000

> <r_epik_Ionization_Penalty_Charging>
  0.0000

> <r_epik_Ionization_Penalty_Neutral>
  0.0000

> <r_epik_State_Penalty>
 -0.0000

> <r_epik_Charging_Adjusted_Penalty>
0

> <i_epik_Tot_Q>
0

> <i_epik_Tot_abs_Q>
0

> <s_epik_Chemistry_Notes>
This compound contains an acetal/aminal-like group ( X-CH(R)-Y where X, Y are N, S, or O) that may be acid/base labile, releasing an aldehyde.

$$$$
