5akw_ligand
                    3D
 Schrodinger Suite 2020-3.
 29 31  0  0  1  0            999 V2000
   -6.9500  -38.4120    6.3050 Cl  0  0  0  0  0  0
   -8.3540  -38.3480   15.1520 O   0  0  0  0  0  0
   -4.8600  -34.8490   15.8070 C   0  0  0  0  0  0
   -5.5560  -35.6740   16.6990 C   0  0  0  0  0  0
   -6.2300  -37.0290    8.5240 C   0  0  0  0  0  0
   -7.3270  -39.1440    8.9300 C   0  0  0  0  0  0
   -5.0500  -35.0530   14.4410 C   0  0  0  0  0  0
   -6.4230  -36.6660   16.2530 C   0  0  0  0  0  0
   -6.1280  -36.8050    9.8930 C   0  0  0  0  0  0
   -7.2290  -38.9210   10.2880 C   0  0  0  0  0  0
   -7.5770  -38.0950   13.0670 N   0  0  0  0  0  0
   -6.0360  -36.2690   12.6490 N   0  0  0  0  0  0
   -7.4690  -37.8810   14.4330 C   0  0  0  0  0  0
   -6.8230  -38.1900    8.0500 C   0  0  0  0  0  0
   -6.6570  -37.7390   10.7970 C   0  0  0  0  0  0
   -5.8890  -36.0720   13.9990 C   0  0  0  0  0  0
   -6.5630  -36.9130   14.9100 C   0  0  0  0  0  0
   -6.4970  -37.5830   12.1890 C   0  0  2  0  0  0
   -4.1894  -34.0702   16.1700 H   0  0  0  0  0  0
   -5.4147  -35.5352   17.7708 H   0  0  0  0  0  0
   -5.8430  -36.2904    7.8219 H   0  0  0  0  0  0
   -7.7924  -40.0541    8.5514 H   0  0  0  0  0  0
   -4.5414  -34.4143   13.7188 H   0  0  0  0  0  0
   -6.9945  -37.2505   16.9740 H   0  0  0  0  0  0
   -5.6376  -35.9048   10.2634 H   0  0  0  0  0  0
   -7.6019  -39.6751   10.9811 H   0  0  0  0  0  0
   -8.4343  -38.6284   12.6305 H   0  0  0  0  0  0
   -5.8189  -35.4756   11.9186 H   0  0  0  0  0  0
   -5.6515  -38.2842   12.2476 H   0  0  0  0  0  0
  1 14  1  0  0  0
  2 13  2  0  0  0
  3  4  2  0  0  0
  3  7  1  0  0  0
  3 19  1  0  0  0
  4  8  1  0  0  0
  4 20  1  0  0  0
  5  9  2  0  0  0
  5 14  1  0  0  0
  5 21  1  0  0  0
  6 10  1  0  0  0
  6 14  2  0  0  0
  6 22  1  0  0  0
  7 16  2  0  0  0
  7 23  1  0  0  0
  8 17  2  0  0  0
  8 24  1  0  0  0
  9 15  1  0  0  0
  9 25  1  0  0  0
 10 15  2  0  0  0
 10 26  1  0  0  0
 11 13  1  0  0  0
 11 18  1  0  0  0
 11 27  1  0  0  0
 12 16  1  0  0  0
 12 18  1  0  0  0
 12 28  1  0  0  0
 13 17  1  0  0  0
 15 18  1  0  0  0
 16 17  1  0  0  0
 18 29  1  0  0  0
M  END
> <s_m_source_file>
../5akw_ligand.sdf

> <i_m_source_file_index>
1

> <s_epik_input>
Q2xjMVtjSF1bY0hdYyhbY0hdW2NIXTEpW0NAQEhdKFtOSF0yKVtOSF1DKD1PKWMoYzIzKVtjSF1bY0hdW2NIXVtjSF0z

> <s_epik_cmdline>
J2VwaWtfYXBwJywgJy1pbWFlJywgJ2xpZ2FuZF9wcm8ubWFlJywgJy1vbWFlJywgJ2xpZ2FuZF9wcmVwLm1hZScsICctbXMnLCAnMScsICctcGgnLCAnNycsICctcGh0JywgJzAuNScsICctbnQn

> <r_lp_tautomer_probability>
1

> <r_epik_Ionization_Penalty>
  0.0000

> <r_epik_Ionization_Penalty_Charging>
  0.0000

> <r_epik_Ionization_Penalty_Neutral>
  0.0000

> <r_epik_State_Penalty>
 -0.0000

> <r_epik_Charging_Adjusted_Penalty>
0

> <i_epik_Tot_Q>
0

> <i_epik_Tot_abs_Q>
0

> <s_epik_Chemistry_Notes>
This compound contains an acetal/aminal-like group ( X-CH(R)-Y where X, Y are N, S, or O) that may be acid/base labile, releasing an aldehyde.

$$$$
