5akz_ligand
                    3D
 Schrodinger Suite 2020-3.
 27 27  0  0  1  0            999 V2000
  -17.7720   10.6050  -14.1800 C   0  0  0  0  0  0
  -16.6420   11.1560  -14.8950 N   0  0  0  0  0  0
  -16.3600   10.8380  -16.2030 C   0  0  0  0  0  0
  -16.7810    9.8380  -16.7630 O   0  0  0  0  0  0
  -15.5330   11.7630  -16.8080 N   0  0  0  0  0  0
  -15.0170   11.5870  -18.1490 C   0  0  0  0  0  0
  -14.5780   12.9340  -18.7090 C   0  0  0  0  0  0
  -13.9710   12.7590  -20.0860 C   0  0  0  0  0  0
  -12.7940   11.8000  -20.0510 C   0  0  0  0  0  0
  -13.1890   10.4430  -19.4840 C   0  0  0  0  0  0
  -13.8700   10.5780  -18.1340 C   0  0  0  0  0  0
  -17.7886   11.0057  -13.1557 H   0  0  0  0  0  0
  -17.6839    9.5091  -14.1436 H   0  0  0  0  0  0
  -18.7029   10.8811  -14.6969 H   0  0  0  0  0  0
  -15.9644   11.8619  -14.3926 H   0  0  0  0  0  0
  -15.2687   12.6611  -16.2305 H   0  0  0  0  0  0
  -15.8405   11.1914  -18.7616 H   0  0  0  0  0  0
  -15.4490   13.6018  -18.7830 H   0  0  0  0  0  0
  -13.8281   13.3822  -18.0406 H   0  0  0  0  0  0
  -14.7302   12.3569  -20.7730 H   0  0  0  0  0  0
  -13.6188   13.7325  -20.4579 H   0  0  0  0  0  0
  -12.4123   11.6506  -21.0718 H   0  0  0  0  0  0
  -11.9973   12.2202  -19.4195 H   0  0  0  0  0  0
  -13.8847    9.9451  -20.1755 H   0  0  0  0  0  0
  -12.2897    9.8221  -19.3586 H   0  0  0  0  0  0
  -13.1108   10.8968  -17.4047 H   0  0  0  0  0  0
  -14.2565    9.5876  -17.8517 H   0  0  0  0  0  0
  1  2  1  0  0  0
  1 12  1  0  0  0
  1 13  1  0  0  0
  1 14  1  0  0  0
  2  3  1  0  0  0
  2 15  1  0  0  0
  3  4  2  0  0  0
  3  5  1  0  0  0
  5  6  1  0  0  0
  5 16  1  0  0  0
  6  7  1  0  0  0
  6 11  1  0  0  0
  6 17  1  0  0  0
  7  8  1  0  0  0
  7 18  1  0  0  0
  7 19  1  0  0  0
  8  9  1  0  0  0
  8 20  1  0  0  0
  8 21  1  0  0  0
  9 10  1  0  0  0
  9 22  1  0  0  0
  9 23  1  0  0  0
 10 11  1  0  0  0
 10 24  1  0  0  0
 10 25  1  0  0  0
 11 26  1  0  0  0
 11 27  1  0  0  0
M  END
> <s_m_source_file>
../5akz_ligand.sdf

> <i_m_source_file_index>
1

> <s_epik_input>
W0NIM11bTkhdQyg9TylbTkhdW0NIXTFbQ0gyXVtDSDJdW0NIMl1bQ0gyXVtDSDJdMQ==

> <s_epik_cmdline>
J2VwaWtfYXBwJywgJy1pbWFlJywgJ2xpZ2FuZF9wcm8ubWFlJywgJy1vbWFlJywgJ2xpZ2FuZF9wcmVwLm1hZScsICctbXMnLCAnMScsICctcGgnLCAnNycsICctcGh0JywgJzAuNScsICctbnQn

> <r_lp_tautomer_probability>
1

> <r_epik_Ionization_Penalty>
  0.0001

> <r_epik_Ionization_Penalty_Charging>
  0.0000

> <r_epik_Ionization_Penalty_Neutral>
  0.0001

> <r_epik_State_Penalty>
 -0.0000

> <r_epik_Charging_Adjusted_Penalty>
0

> <i_epik_Tot_Q>
0

> <i_epik_Tot_abs_Q>
0

$$$$
