5al1_ligand
                    3D
 Schrodinger Suite 2020-3.
 40 42  0  0  1  0            999 V2000
   -7.9800  -38.0500    5.9440 C   0  0  0  0  0  0
   -6.5790  -38.3250    6.5270 C   0  0  0  0  0  0
   -5.5820  -37.4290    5.7630 C   0  0  0  0  0  0
   -6.1300  -39.7720    6.2530 C   0  0  0  0  0  0
   -6.5650  -38.1310    7.9710 C   0  0  0  0  0  0
   -7.3100  -38.9670    8.8210 C   0  0  0  0  0  0
   -7.3010  -38.8010   10.2150 C   0  0  0  0  0  0
   -5.8090  -37.1350    8.5960 C   0  0  0  0  0  0
   -5.7900  -36.9700    9.9930 C   0  0  0  0  0  0
   -6.5540  -37.7740   10.8350 C   0  0  0  0  0  0
   -6.4590  -37.6080   12.2730 C   0  0  2  0  0  0
   -7.5550  -38.1330   13.1300 N   0  0  0  0  0  0
   -7.4930  -37.9240   14.5200 C   0  0  0  0  0  0
   -8.3720  -38.4120   15.2280 O   0  0  0  0  0  0
   -6.5990  -36.9840   15.0330 C   0  0  0  0  0  0
   -6.3990  -36.8300   16.3990 C   0  0  0  0  0  0
   -5.5060  -35.8430   16.8620 C   0  0  0  0  0  0
   -4.8430  -35.0020   15.9620 C   0  0  0  0  0  0
   -5.0720  -35.1700   14.5720 N   0  0  0  0  0  0
   -5.9100  -36.1310   14.1430 C   0  0  0  0  0  0
   -6.0900  -36.2650   12.7750 N   0  0  0  0  0  0
   -7.9606  -38.2039    4.8550 H   0  0  0  0  0  0
   -8.2708  -37.0119    6.1625 H   0  0  0  0  0  0
   -8.7079  -38.7381    6.3987 H   0  0  0  0  0  0
   -5.6548  -37.6358    4.6851 H   0  0  0  0  0  0
   -4.5594  -37.6407    6.1088 H   0  0  0  0  0  0
   -5.8210  -36.3718    5.9505 H   0  0  0  0  0  0
   -6.1282  -39.9562    5.1685 H   0  0  0  0  0  0
   -6.8248  -40.4704    6.7424 H   0  0  0  0  0  0
   -5.1162  -39.9232    6.6523 H   0  0  0  0  0  0
   -7.9108  -39.7656    8.3859 H   0  0  0  0  0  0
   -7.8849  -39.4814   10.8348 H   0  0  0  0  0  0
   -5.2131  -36.4624    7.9791 H   0  0  0  0  0  0
   -5.1611  -36.1929   10.4274 H   0  0  0  0  0  0
   -5.5996  -38.2896   12.3556 H   0  0  0  0  0  0
   -8.3971  -38.6752   12.6752 H   0  0  0  0  0  0
   -6.9285  -37.4675   17.1071 H   0  0  0  0  0  0
   -5.3301  -35.7338   17.9322 H   0  0  0  0  0  0
   -4.1622  -34.2309   16.3225 H   0  0  0  0  0  0
   -5.9706  -35.4283   12.0709 H   0  0  0  0  0  0
  1  2  1  0  0  0
  1 22  1  0  0  0
  1 23  1  0  0  0
  1 24  1  0  0  0
  2  3  1  0  0  0
  2  4  1  0  0  0
  2  5  1  0  0  0
  3 25  1  0  0  0
  3 26  1  0  0  0
  3 27  1  0  0  0
  4 28  1  0  0  0
  4 29  1  0  0  0
  4 30  1  0  0  0
  5  6  2  0  0  0
  5  8  1  0  0  0
  6  7  1  0  0  0
  6 31  1  0  0  0
  7 10  2  0  0  0
  7 32  1  0  0  0
  8  9  2  0  0  0
  8 33  1  0  0  0
  9 10  1  0  0  0
  9 34  1  0  0  0
 10 11  1  0  0  0
 11 12  1  0  0  0
 11 21  1  0  0  0
 11 35  1  0  0  0
 12 13  1  0  0  0
 12 36  1  0  0  0
 13 14  2  0  0  0
 13 15  1  0  0  0
 15 16  2  0  0  0
 15 20  1  0  0  0
 16 17  1  0  0  0
 16 37  1  0  0  0
 17 18  2  0  0  0
 17 38  1  0  0  0
 18 19  1  0  0  0
 18 39  1  0  0  0
 19 20  2  0  0  0
 20 21  1  0  0  0
 21 40  1  0  0  0
M  END
> <s_m_source_file>
../5al1_ligand.sdf

> <i_m_source_file_index>
1

> <s_epik_input>
W0NIM11DKFtDSDNdKShbQ0gzXSljMVtjSF1bY0hdYyhbY0hdW2NIXTEpW0NASF0oW05IXUMyPU8pW05IXWMoYzIzKW5bY0hdW2NIXVtjSF0z

> <s_epik_cmdline>
J2VwaWtfYXBwJywgJy1pbWFlJywgJ2xpZ2FuZF9wcm8ubWFlJywgJy1vbWFlJywgJ2xpZ2FuZF9wcmVwLm1hZScsICctbXMnLCAnMScsICctcGgnLCAnNycsICctcGh0JywgJzAuNScsICctbnQn

> <r_lp_tautomer_probability>
1

> <r_epik_Ionization_Penalty>
  0.0005

> <r_epik_Ionization_Penalty_Charging>
  0.0000

> <r_epik_Ionization_Penalty_Neutral>
  0.0005

> <r_epik_State_Penalty>
 -0.0000

> <r_epik_Charging_Adjusted_Penalty>
0

> <i_epik_Tot_Q>
0

> <i_epik_Tot_abs_Q>
0

> <s_epik_Chemistry_Notes>
This compound contains an acetal/aminal-like group ( X-CH(R)-Y where X, Y are N, S, or O) that may be acid/base labile, releasing an aldehyde.

$$$$
