5al2_ligand
                    3D
 Schrodinger Suite 2020-3.
 37 39  0  0  1  0            999 V2000
  -38.6260  -10.5590    5.5990 C   0  0  0  0  0  0
  -39.9860  -10.3350    6.3020 C   0  0  0  0  0  0
  -40.5650   -8.9590    5.9510 C   0  0  0  0  0  0
  -39.9020  -10.4600    7.7230 C   0  0  0  0  0  0
  -40.5850  -11.5230    8.3180 C   0  0  0  0  0  0
  -40.5920  -11.7030    9.6830 C   0  0  0  0  0  0
  -39.1800   -9.5880    8.5660 C   0  0  0  0  0  0
  -39.1660   -9.7940    9.9390 C   0  0  0  0  0  0
  -39.8330  -10.8830   10.5160 C   0  0  0  0  0  0
  -39.9390  -11.0440   11.9110 C   0  0  2  0  0  0
  -38.9010  -10.5360   12.8320 N   0  0  0  0  0  0
  -39.0390  -10.6740   14.1870 C   0  0  0  0  0  0
  -38.1760  -10.1000   14.8980 O   0  0  0  0  0  0
  -40.0010  -11.5990   14.6890 C   0  0  0  0  0  0
  -40.1960  -11.7790   16.0550 C   0  0  0  0  0  0
  -41.1300  -12.7190   16.5120 C   0  0  0  0  0  0
  -41.8560  -13.4790   15.5810 C   0  0  0  0  0  0
  -41.6310  -13.3250   14.2090 N   0  0  0  0  0  0
  -40.7450  -12.3810   13.7930 C   0  0  0  0  0  0
  -40.5320  -12.2560   12.4320 N   0  0  0  0  0  0
  -38.7530  -10.4506    4.5118 H   0  0  0  0  0  0
  -38.2581  -11.5705    5.8261 H   0  0  0  0  0  0
  -37.9001   -9.8152    5.9594 H   0  0  0  0  0  0
  -40.6696  -11.1466    6.0120 H   0  0  0  0  0  0
  -40.6319   -8.8574    4.8577 H   0  0  0  0  0  0
  -39.9098   -8.1721    6.3530 H   0  0  0  0  0  0
  -41.5686   -8.8605    6.3905 H   0  0  0  0  0  0
  -41.1259  -12.2275    7.6862 H   0  0  0  0  0  0
  -41.1990  -12.4971   10.1178 H   0  0  0  0  0  0
  -38.6312   -8.7495    8.1374 H   0  0  0  0  0  0
  -38.6266   -9.0962   10.5795 H   0  0  0  0  0  0
  -40.7210  -10.2733   11.8443 H   0  0  0  0  0  0
  -38.0047  -10.0403   12.4309 H   0  0  0  0  0  0
  -39.6224  -11.1889   16.7697 H   0  0  0  0  0  0
  -41.2913  -12.8588   17.5809 H   0  0  0  0  0  0
  -42.6006  -14.1944   15.9300 H   0  0  0  0  0  0
  -40.8103  -13.0706   11.7472 H   0  0  0  0  0  0
  1  2  1  0  0  0
  1 21  1  0  0  0
  1 22  1  0  0  0
  1 23  1  0  0  0
  2  3  1  0  0  0
  2  4  1  0  0  0
  2 24  1  0  0  0
  3 25  1  0  0  0
  3 26  1  0  0  0
  3 27  1  0  0  0
  4  5  2  0  0  0
  4  7  1  0  0  0
  5  6  1  0  0  0
  5 28  1  0  0  0
  6  9  2  0  0  0
  6 29  1  0  0  0
  7  8  2  0  0  0
  7 30  1  0  0  0
  8  9  1  0  0  0
  8 31  1  0  0  0
  9 10  1  0  0  0
 10 11  1  0  0  0
 10 20  1  0  0  0
 10 32  1  0  0  0
 11 12  1  0  0  0
 11 33  1  0  0  0
 12 13  2  0  0  0
 12 14  1  0  0  0
 14 15  2  0  0  0
 14 19  1  0  0  0
 15 16  1  0  0  0
 15 34  1  0  0  0
 16 17  2  0  0  0
 16 35  1  0  0  0
 17 18  1  0  0  0
 17 36  1  0  0  0
 18 19  2  0  0  0
 19 20  1  0  0  0
 20 37  1  0  0  0
M  END
> <s_m_source_file>
../5al2_ligand.sdf

> <i_m_source_file_index>
1

> <s_epik_input>
W0NIM11bQ0hdKFtDSDNdKWMxW2NIXVtjSF1jKFtjSF1bY0hdMSlbQ0BIXShbTkhdQzI9TylbTkhdYyhjMjMpbltjSF1bY0hdW2NIXTM=

> <s_epik_cmdline>
J2VwaWtfYXBwJywgJy1pbWFlJywgJ2xpZ2FuZF9wcm8ubWFlJywgJy1vbWFlJywgJ2xpZ2FuZF9wcmVwLm1hZScsICctbXMnLCAnMScsICctcGgnLCAnNycsICctcGh0JywgJzAuNScsICctbnQn

> <r_lp_tautomer_probability>
1

> <r_epik_Ionization_Penalty>
  0.0005

> <r_epik_Ionization_Penalty_Charging>
  0.0000

> <r_epik_Ionization_Penalty_Neutral>
  0.0005

> <r_epik_State_Penalty>
 -0.0000

> <r_epik_Charging_Adjusted_Penalty>
0

> <i_epik_Tot_Q>
0

> <i_epik_Tot_abs_Q>
0

> <s_epik_Chemistry_Notes>
This compound contains an acetal/aminal-like group ( X-CH(R)-Y where X, Y are N, S, or O) that may be acid/base labile, releasing an aldehyde.

$$$$
