5al4_ligand
                    3D
 Schrodinger Suite 2020-3.
 38 40  0  0  1  0            999 V2000
  -39.8590  -12.0780    9.5770 C   0  0  0  0  0  0
  -39.1500  -12.1660    8.3060 C   0  0  0  0  0  0
  -38.7950  -10.8460    7.7910 N   0  0  0  0  0  0
  -38.1140  -11.0210    6.4820 C   0  0  0  0  0  0
  -37.8320  -10.1500    8.6400 C   0  0  0  0  0  0
  -38.3060  -10.1150   10.0610 C   0  0  0  0  0  0
  -38.9480  -11.3820   10.5380 N   0  0  0  0  0  0
  -38.9330  -11.6850   11.8720 C   0  0  0  0  0  0
  -39.7650  -12.6050   12.3590 N   0  0  0  0  0  0
  -39.7980  -12.9740   13.6730 C   0  0  0  0  0  0
  -40.7260  -13.9770   13.9600 C   0  0  0  0  0  0
  -40.4000  -14.6370   15.2780 C   0  0  0  0  0  0
  -40.2600  -13.5470   16.3640 C   0  0  0  0  0  0
  -39.0340  -12.6340   16.0330 C   0  0  0  0  0  0
  -39.0160  -12.3240   14.6150 C   0  0  1  0  0  0
  -38.1100  -11.3290   14.1070 C   0  0  0  0  0  0
  -37.3180  -10.6960   14.8070 O   0  0  0  0  0  0
  -38.0790  -11.0290   12.7660 N   0  0  0  0  0  0
  -40.7889  -11.5067    9.4393 H   0  0  0  0  0  0
  -40.1000  -13.0904    9.9333 H   0  0  0  0  0  0
  -38.2242  -12.7443    8.4419 H   0  0  0  0  0  0
  -39.7891  -12.6662    7.5635 H   0  0  0  0  0  0
  -38.7866  -11.5432    5.7857 H   0  0  0  0  0  0
  -37.1982  -11.6142    6.6215 H   0  0  0  0  0  0
  -37.8530  -10.0351    6.0698 H   0  0  0  0  0  0
  -36.8645  -10.6719    8.6010 H   0  0  0  0  0  0
  -37.7064   -9.1175    8.2819 H   0  0  0  0  0  0
  -37.4528   -9.9204   10.7274 H   0  0  0  0  0  0
  -39.0529   -9.3161   10.1788 H   0  0  0  0  0  0
  -40.4760  -13.1126   11.6905 H   0  0  0  0  0  0
  -41.5477  -14.1832   13.2584 H   0  0  0  0  0  0
  -41.2088  -15.3310   15.5505 H   0  0  0  0  0  0
  -39.4553  -15.1930   15.1859 H   0  0  0  0  0  0
  -41.1746  -12.9365   16.3908 H   0  0  0  0  0  0
  -40.1081  -14.0231   17.3439 H   0  0  0  0  0  0
  -39.1076  -11.6988   16.6075 H   0  0  0  0  0  0
  -38.1043  -13.1570   16.3014 H   0  0  0  0  0  0
  -40.0201  -12.6555   14.9181 H   0  0  0  0  0  0
  1  2  1  0  0  0
  1  7  1  0  0  0
  1 19  1  0  0  0
  1 20  1  0  0  0
  2  3  1  0  0  0
  2 21  1  0  0  0
  2 22  1  0  0  0
  3  4  1  0  0  0
  3  5  1  0  0  0
  4 23  1  0  0  0
  4 24  1  0  0  0
  4 25  1  0  0  0
  5  6  1  0  0  0
  5 26  1  0  0  0
  5 27  1  0  0  0
  6  7  1  0  0  0
  6 28  1  0  0  0
  6 29  1  0  0  0
  7  8  1  0  0  0
  8  9  1  0  0  0
  8 18  2  0  0  0
  9 10  1  0  0  0
  9 30  1  0  0  0
 10 11  2  0  0  0
 10 15  1  0  0  0
 11 12  1  0  0  0
 11 31  1  0  0  0
 12 13  1  0  0  0
 12 32  1  0  0  0
 12 33  1  0  0  0
 13 14  1  0  0  0
 13 34  1  0  0  0
 13 35  1  0  0  0
 14 15  1  0  0  0
 14 36  1  0  0  0
 14 37  1  0  0  0
 15 16  1  0  0  0
 15 38  1  0  0  0
 16 17  2  0  0  0
 16 18  1  0  0  0
M  END
> <s_m_source_file>
../5al4_ligand.sdf

> <i_m_source_file_index>
1

> <s_epik_input>
W0NIM11bTkgrXTFbQ0gyXVtDSDJdTihbQ0gyXVtDSDJdMSlDKFtOSF0yKT1OQyg9TylbQ0hdKEMyPTMpW0NIMl1bQ0gyXVtDSDJdW0NIXTM=

> <s_epik_cmdline>
J2VwaWtfYXBwJywgJy1pbWFlJywgJ2xpZ2FuZF9wcm8ubWFlJywgJy1vbWFlJywgJ2xpZ2FuZF9wcmVwLm1hZScsICctbXMnLCAnMScsICctcGgnLCAnNycsICctcGh0JywgJzAuNScsICctbnQn

> <r_epik_Ionization_Penalty>
  0.0826

> <r_epik_Ionization_Penalty_Charging>
  0.0000

> <r_epik_Ionization_Penalty_Neutral>
  0.0826

> <r_epik_State_Penalty>
  0.0733

> <r_epik_Charging_Adjusted_Penalty>
0.0732892010332191

> <i_epik_Tot_Q>
0

> <i_epik_Tot_abs_Q>
0

> <s_epik_Chemistry_Notes>
This compound has an imine and may undergo hydrolysis.

$$$$
