5al5_ligand
                    3D
 Schrodinger Suite 2020-3.
 47 50  0  0  1  0            999 V2000
  -39.1010  -11.7380    4.5740 C   0  0  0  0  0  0
  -39.9910  -12.0910    3.5700 C   0  0  0  0  0  0
  -41.2890  -11.5330    3.5520 N   0  0  0  0  0  0
  -41.6930  -10.6150    4.5300 C   0  0  0  0  0  0
  -40.7770  -10.2490    5.5190 C   0  0  0  0  0  0
  -39.4970  -10.8180    5.5510 C   0  0  0  0  0  0
  -38.5960  -10.4500    6.5750 C   0  0  0  0  0  0
  -39.2220  -10.5630    7.9060 N   0  0  0  0  0  0
  -39.3900  -11.9800    8.3180 C   0  0  0  0  0  0
  -40.0100  -12.0120    9.6760 C   0  0  0  0  0  0
  -38.0570  -10.1470    8.7140 C   0  0  0  0  0  0
  -38.3220  -10.1050   10.1570 C   0  0  0  0  0  0
  -39.0650  -11.3250   10.6420 N   0  0  0  0  0  0
  -39.0650  -11.6640   11.9670 C   0  0  0  0  0  0
  -39.9090  -12.6150   12.4290 N   0  0  0  0  0  0
  -39.9790  -12.9680   13.7210 C   0  0  0  0  0  0
  -40.9140  -13.9700   14.0040 C   0  0  0  0  0  0
  -40.5200  -14.6530   15.3670 C   0  0  0  0  0  0
  -40.3490  -13.5280   16.4090 C   0  0  0  0  0  0
  -39.1710  -12.6630   16.0920 C   0  0  0  0  0  0
  -39.1590  -12.3350   14.6900 C   0  0  1  0  0  0
  -38.2190  -11.3680   14.2240 C   0  0  0  0  0  0
  -37.3940  -10.7890   14.9480 O   0  0  0  0  0  0
  -38.1880  -11.0440   12.8900 N   0  0  0  0  0  0
  -38.1021  -12.1735    4.6015 H   0  0  0  0  0  0
  -39.6895  -12.7974    2.7966 H   0  0  0  0  0  0
  -42.6992  -10.1959    4.5195 H   0  0  0  0  0  0
  -41.0605   -9.5142    6.2726 H   0  0  0  0  0  0
  -37.7169  -11.1105    6.5446 H   0  0  0  0  0  0
  -38.2770   -9.4079    6.4257 H   0  0  0  0  0  0
  -40.0409  -12.4967    7.5973 H   0  0  0  0  0  0
  -38.4072  -12.4734    8.3437 H   0  0  0  0  0  0
  -40.9752  -11.4850    9.6509 H   0  0  0  0  0  0
  -40.1705  -13.0565    9.9813 H   0  0  0  0  0  0
  -37.2290  -10.8534    8.5544 H   0  0  0  0  0  0
  -37.7417   -9.1379    8.4103 H   0  0  0  0  0  0
  -37.3689  -10.0488   10.7033 H   0  0  0  0  0  0
  -38.9321   -9.2205   10.3922 H   0  0  0  0  0  0
  -40.5807  -13.1393   11.7333 H   0  0  0  0  0  0
  -41.7467  -14.1571   13.3101 H   0  0  0  0  0  0
  -41.3171  -15.3463   15.6736 H   0  0  0  0  0  0
  -39.5793  -15.2089   15.2401 H   0  0  0  0  0  0
  -41.2508  -12.8982   16.4200 H   0  0  0  0  0  0
  -40.1986  -13.9703   17.4048 H   0  0  0  0  0  0
  -39.2294  -11.7345   16.6789 H   0  0  0  0  0  0
  -38.2441  -13.1987   16.3447 H   0  0  0  0  0  0
  -40.2095  -12.3934   15.0110 H   0  0  0  0  0  0
  1  2  2  0  0  0
  1  6  1  0  0  0
  1 25  1  0  0  0
  2  3  1  0  0  0
  2 26  1  0  0  0
  3  4  2  0  0  0
  4  5  1  0  0  0
  4 27  1  0  0  0
  5  6  2  0  0  0
  5 28  1  0  0  0
  6  7  1  0  0  0
  7  8  1  0  0  0
  7 29  1  0  0  0
  7 30  1  0  0  0
  8  9  1  0  0  0
  8 11  1  0  0  0
  9 10  1  0  0  0
  9 31  1  0  0  0
  9 32  1  0  0  0
 10 13  1  0  0  0
 10 33  1  0  0  0
 10 34  1  0  0  0
 11 12  1  0  0  0
 11 35  1  0  0  0
 11 36  1  0  0  0
 12 13  1  0  0  0
 12 37  1  0  0  0
 12 38  1  0  0  0
 13 14  1  0  0  0
 14 15  1  0  0  0
 14 24  2  0  0  0
 15 16  1  0  0  0
 15 39  1  0  0  0
 16 17  2  0  0  0
 16 21  1  0  0  0
 17 18  1  0  0  0
 17 40  1  0  0  0
 18 19  1  0  0  0
 18 41  1  0  0  0
 18 42  1  0  0  0
 19 20  1  0  0  0
 19 43  1  0  0  0
 19 44  1  0  0  0
 20 21  1  0  0  0
 20 45  1  0  0  0
 20 46  1  0  0  0
 21 22  1  0  0  0
 21 47  1  0  0  0
 22 23  2  0  0  0
 22 24  1  0  0  0
M  END
> <s_m_source_file>
../5al5_ligand.sdf

> <i_m_source_file_index>
1

> <s_epik_input>
W2NIXTFbY0hdbltjSF1bY0hdYzFbQ0gyXVtOSCtdMltDSDJdW0NIMl1OKFtDSDJdW0NIMl0yKUMoW05IXTMpPU5DKD1PKVtDQEBIXShDMz00KVtDSDJdW0NIMl1bQ0gyXVtDSF00

> <s_epik_cmdline>
J2VwaWtfYXBwJywgJy1pbWFlJywgJ2xpZ2FuZF9wcm8ubWFlJywgJy1vbWFlJywgJ2xpZ2FuZF9wcmVwLm1hZScsICctbXMnLCAnMScsICctcGgnLCAnNycsICctcGh0JywgJzAuNScsICctbnQn

> <r_epik_Ionization_Penalty>
  0.0792

> <r_epik_Ionization_Penalty_Charging>
  0.0000

> <r_epik_Ionization_Penalty_Neutral>
  0.0792

> <r_epik_State_Penalty>
  0.0630

> <r_epik_Charging_Adjusted_Penalty>
0.0630351103491298

> <i_epik_Tot_Q>
0

> <i_epik_Tot_abs_Q>
0

> <s_epik_Chemistry_Notes>
This compound has an imine and may undergo hydrolysis.

$$$$
