5alc_ligand
                    3D
 Schrodinger Suite 2020-3.
 64 68  0  0  1  0            999 V2000
    8.9580  -12.2190  -70.0730 C   0  0  0  0  0  0
    8.3170  -11.1590  -69.2140 C   0  0  0  0  0  0
    6.9750  -10.8530  -69.8310 C   0  0  0  0  0  0
    6.2430   -9.3690  -69.0960 S   0  0  0  0  0  0
    6.9560   -8.1160  -70.1290 C   0  0  0  0  0  0
    6.5830   -6.8710  -69.8050 N   0  0  0  0  0  0
    7.0790   -5.8190  -70.4740 C   0  0  0  0  0  0
    6.7230   -4.4970  -70.1820 N   0  0  0  0  0  0
    6.3970   -4.1640  -68.7920 C   0  0  2  0  0  0
    5.0000   -3.8340  -68.3580 C   0  0  0  0  0  0
    6.0170   -2.7530  -68.4760 C   0  0  1  0  0  0
    6.4950   -2.0780  -67.2500 C   0  0  0  0  0  0
    6.6660   -0.7120  -67.3190 C   0  0  0  0  0  0
    7.0820    0.0560  -66.2510 C   0  0  0  0  0  0
    7.3380   -0.5710  -65.0570 C   0  0  0  0  0  0
    7.7800    0.1540  -64.0020 F   0  0  0  0  0  0
    7.1620   -1.9350  -64.9590 C   0  0  0  0  0  0
    7.4310   -2.5420  -63.8050 F   0  0  0  0  0  0
    6.7380   -2.6880  -66.0340 C   0  0  0  0  0  0
    7.9490   -6.0890  -71.5180 C   0  0  0  0  0  0
    8.6170   -5.2780  -72.4010 N   0  0  0  0  0  0
    9.3400   -6.0560  -73.2010 N   0  0  0  0  0  0
    9.1160   -7.3300  -72.8390 N   0  0  0  0  0  0
    9.8670   -8.3870  -73.4970 C   0  0  2  0  0  0
    9.0500   -9.3980  -74.2590 C   0  0  0  0  0  0
    9.9450  -10.6160  -74.3340 C   0  0  2  0  0  0
    9.1470  -11.7670  -74.0550 O   0  0  0  0  0  0
    9.6030  -12.8310  -74.8860 C   0  0  0  0  0  0
    8.4630  -13.4090  -75.6910 C   0  0  0  0  0  0
    8.9900  -14.4890  -76.4520 O   0  0  0  0  0  0
   11.0670  -10.4450  -73.3130 C   0  0  1  0  0  0
   12.3010  -10.2500  -74.0130 O   0  0  0  0  0  0
   10.7330   -9.1810  -72.5520 C   0  0  1  0  0  0
   11.8940   -8.4500  -72.1800 O   0  0  0  0  0  0
    8.2480   -7.4050  -71.7820 C   0  0  0  0  0  0
    7.7890   -8.4740  -71.1210 N   0  0  0  0  0  0
    9.9448  -12.4773  -69.6613 H   0  0  0  0  0  0
    9.0766  -11.8380  -71.0981 H   0  0  0  0  0  0
    8.3203  -13.1152  -70.0864 H   0  0  0  0  0  0
    8.1984  -11.5400  -68.1889 H   0  0  0  0  0  0
    8.9547  -10.2628  -69.2005 H   0  0  0  0  0  0
    7.0975  -10.6867  -70.9114 H   0  0  0  0  0  0
    6.2935  -11.7004  -69.6654 H   0  0  0  0  0  0
    6.6835   -3.7183  -70.9579 H   0  0  0  0  0  0
    7.1496   -4.8943  -68.4600 H   0  0  0  0  0  0
    4.2922   -4.1253  -69.1480 H   0  0  0  0  0  0
    4.7640   -4.3821  -67.4339 H   0  0  0  0  0  0
    6.1005   -1.7984  -69.0161 H   0  0  0  0  0  0
    6.4620   -0.2128  -68.2662 H   0  0  0  0  0  0
    7.2044    1.1343  -66.3529 H   0  0  0  0  0  0
    6.5948   -3.7630  -65.9246 H   0  0  0  0  0  0
   10.4491   -7.7667  -74.1944 H   0  0  0  0  0  0
    8.1178   -9.6032  -73.7122 H   0  0  0  0  0  0
    8.8102   -8.9994  -75.2558 H   0  0  0  0  0  0
   10.3616  -10.7896  -75.3371 H   0  0  0  0  0  0
   10.3699  -12.4529  -75.5781 H   0  0  0  0  0  0
   10.0341  -13.6262  -74.2601 H   0  0  0  0  0  0
    7.6759  -13.7639  -75.0095 H   0  0  0  0  0  0
    8.0518  -12.6333  -76.3537 H   0  0  0  0  0  0
    8.3317  -15.0641  -77.1198 H   0  0  0  0  0  0
   11.2176  -11.3187  -72.6618 H   0  0  0  0  0  0
   12.7176  -11.0602  -74.6295 H   0  0  0  0  0  0
   10.2710   -9.3727  -71.5723 H   0  0  0  0  0  0
   11.7951   -7.5081  -71.6205 H   0  0  0  0  0  0
  1  2  1  0  0  0
  1 37  1  0  0  0
  1 38  1  0  0  0
  1 39  1  0  0  0
  2  3  1  0  0  0
  2 40  1  0  0  0
  2 41  1  0  0  0
  3  4  1  0  0  0
  3 42  1  0  0  0
  3 43  1  0  0  0
  4  5  1  0  0  0
  5  6  2  0  0  0
  5 36  1  0  0  0
  6  7  1  0  0  0
  7  8  1  0  0  0
  7 20  2  0  0  0
  8  9  1  0  0  0
  8 44  1  0  0  0
  9 10  1  0  0  0
  9 11  1  0  0  0
  9 45  1  0  0  0
 10 11  1  0  0  0
 10 46  1  0  0  0
 10 47  1  0  0  0
 11 12  1  0  0  0
 11 48  1  0  0  0
 12 13  2  0  0  0
 12 19  1  0  0  0
 13 14  1  0  0  0
 13 49  1  0  0  0
 14 15  2  0  0  0
 14 50  1  0  0  0
 15 16  1  0  0  0
 15 17  1  0  0  0
 17 18  1  0  0  0
 17 19  2  0  0  0
 19 51  1  0  0  0
 20 21  1  0  0  0
 20 35  1  0  0  0
 21 22  2  0  0  0
 22 23  1  0  0  0
 23 24  1  0  0  0
 23 35  1  0  0  0
 24 25  1  0  0  0
 24 33  1  0  0  0
 24 52  1  0  0  0
 25 26  1  0  0  0
 25 53  1  0  0  0
 25 54  1  0  0  0
 26 27  1  0  0  0
 26 31  1  0  0  0
 26 55  1  0  0  0
 27 28  1  0  0  0
 28 29  1  0  0  0
 28 56  1  0  0  0
 28 57  1  0  0  0
 29 30  1  0  0  0
 29 58  1  0  0  0
 29 59  1  0  0  0
 30 60  1  0  0  0
 31 32  1  0  0  0
 31 33  1  0  0  0
 31 61  1  0  0  0
 32 62  1  0  0  0
 33 34  1  0  0  0
 33 63  1  0  0  0
 34 64  1  0  0  0
 35 36  2  0  0  0
M  END
> <s_m_source_file>
../5alc_ligand.sdf

> <i_m_source_file_index>
1

> <s_epik_input>
W09IXVtDSDJdW0NIMl1PW0NASF0oW0NAQEhdKFtPSF0pW0NASF0xW09IXSlbQ0gyXVtDQEhdMW4obm4yKWMoYzIzKW5jKFNbQ0gyXVtDSDJdW0NIM10pbmMzW05IXVtDQEBIXTRbQ0gyXVtDQEhdNGM1W2NIXVtjSF1jKEYpYyhGKVtjSF01

> <s_epik_cmdline>
J2VwaWtfYXBwJywgJy1pbWFlJywgJ2xpZ2FuZF9wcm8ubWFlJywgJy1vbWFlJywgJ2xpZ2FuZF9wcmVwLm1hZScsICctbXMnLCAnMScsICctcGgnLCAnNycsICctcGh0JywgJzAuNScsICctbnQn

> <r_lp_tautomer_probability>
1

> <r_epik_Ionization_Penalty>
  0.0009

> <r_epik_Ionization_Penalty_Charging>
  0.0000

> <r_epik_Ionization_Penalty_Neutral>
  0.0009

> <r_epik_State_Penalty>
 -0.0000

> <r_epik_Charging_Adjusted_Penalty>
0

> <i_epik_Tot_Q>
0

> <i_epik_Tot_abs_Q>
0

$$$$
