5ald_ligand
                    3D
 Schrodinger Suite 2020-3.
 33 35  0  0  1  0            999 V2000
  -16.0330   -9.5810   12.2040 C   0  0  0  0  0  0
  -14.7370   -9.7850   11.7600 C   0  0  0  0  0  0
  -14.4950   -9.5970   10.4180 C   0  0  0  0  0  0
  -15.4770   -9.2450    9.5460 C   0  0  0  0  0  0
  -16.7620   -9.0620    9.9880 C   0  0  0  0  0  0
  -17.0470   -9.2220   11.3300 C   0  0  0  0  0  0
  -18.4630   -8.9840   11.7690 C   0  0  0  0  0  0
  -19.1940  -10.1840   12.3550 C   0  0  0  0  0  0
  -20.6760   -9.8580   12.4520 C   0  0  0  0  0  0
  -20.9600   -8.5230   13.1470 C   0  0  0  0  0  0
  -20.1340   -7.3500   12.6200 C   0  0  0  0  0  0
  -18.6610   -7.7120   12.5970 C   0  0  0  0  0  0
  -14.9910   -9.1110    8.1640 C   0  0  0  0  0  0
  -13.5050   -9.3920    8.3760 C   0  0  0  0  0  0
  -12.6640   -9.3400    7.4670 O   0  0  0  0  0  0
  -13.2990   -9.7200    9.7270 N   0  0  0  0  0  0
  -16.2602   -9.7054   13.2628 H   0  0  0  0  0  0
  -13.9422  -10.0819   12.4443 H   0  0  0  0  0  0
  -17.5516   -8.7926    9.2865 H   0  0  0  0  0  0
  -18.9489   -8.8184   10.7961 H   0  0  0  0  0  0
  -19.0471  -11.0573   11.7025 H   0  0  0  0  0  0
  -18.7950  -10.4033   13.3564 H   0  0  0  0  0  0
  -21.1062   -9.8026   11.4411 H   0  0  0  0  0  0
  -21.1878  -10.6448   13.0256 H   0  0  0  0  0  0
  -22.0187   -8.2570   13.0114 H   0  0  0  0  0  0
  -20.7395   -8.6144   14.2208 H   0  0  0  0  0  0
  -20.4590   -7.1023   11.5987 H   0  0  0  0  0  0
  -20.2791   -6.4767   13.2729 H   0  0  0  0  0  0
  -18.3092   -7.8850   13.6247 H   0  0  0  0  0  0
  -18.0873   -6.8884   12.1469 H   0  0  0  0  0  0
  -15.4981   -9.8480    7.5239 H   0  0  0  0  0  0
  -15.2058   -8.0967    7.7965 H   0  0  0  0  0  0
  -12.3876  -10.0342   10.2567 H   0  0  0  0  0  0
  1  2  2  0  0  0
  1  6  1  0  0  0
  1 17  1  0  0  0
  2  3  1  0  0  0
  2 18  1  0  0  0
  3  4  2  0  0  0
  3 16  1  0  0  0
  4  5  1  0  0  0
  4 13  1  0  0  0
  5  6  2  0  0  0
  5 19  1  0  0  0
  6  7  1  0  0  0
  7  8  1  0  0  0
  7 12  1  0  0  0
  7 20  1  0  0  0
  8  9  1  0  0  0
  8 21  1  0  0  0
  8 22  1  0  0  0
  9 10  1  0  0  0
  9 23  1  0  0  0
  9 24  1  0  0  0
 10 11  1  0  0  0
 10 25  1  0  0  0
 10 26  1  0  0  0
 11 12  1  0  0  0
 11 27  1  0  0  0
 11 28  1  0  0  0
 12 29  1  0  0  0
 12 30  1  0  0  0
 13 14  1  0  0  0
 13 31  1  0  0  0
 13 32  1  0  0  0
 14 15  2  0  0  0
 14 16  1  0  0  0
 16 33  1  0  0  0
M  END
> <s_m_source_file>
../5ald_ligand.sdf

> <i_m_source_file_index>
1

> <s_epik_input>
Tz1DKFtOSF0xKVtDSDJdYyhjMTIpW2NIXWMoW2NIXVtjSF0yKVtDSF0zW0NIMl1bQ0gyXVtDSDJdW0NIMl1bQ0gyXTM=

> <s_epik_cmdline>
J2VwaWtfYXBwJywgJy1pbWFlJywgJ2xpZ2FuZF9wcm8ubWFlJywgJy1vbWFlJywgJ2xpZ2FuZF9wcmVwLm1hZScsICctbXMnLCAnMScsICctcGgnLCAnNycsICctcGh0JywgJzAuNScsICctbnQn

> <r_lp_tautomer_probability>
1

> <r_epik_Ionization_Penalty>
  0.0000

> <r_epik_Ionization_Penalty_Charging>
  0.0000

> <r_epik_Ionization_Penalty_Neutral>
  0.0000

> <r_epik_State_Penalty>
 -0.0000

> <r_epik_Charging_Adjusted_Penalty>
0

> <i_epik_Tot_Q>
0

> <i_epik_Tot_abs_Q>
0

$$$$
