5alg_ligand
                    3D
 Schrodinger Suite 2020-3.
 54 58  0  0  1  0            999 V2000
   -9.9200  -10.8650   20.0280 C   0  0  0  0  0  0
  -10.5900   -9.7640   19.5240 C   0  0  0  0  0  0
  -20.7760  -10.1680   13.0120 C   0  0  0  0  0  0
  -14.1920  -11.0450   14.6490 C   0  0  0  0  0  0
  -19.4580   -9.7890   12.9090 C   0  0  0  0  0  0
  -10.6150  -12.0040   20.3900 C   0  0  0  0  0  0
  -11.9630   -9.7790   19.3740 C   0  0  0  0  0  0
  -13.8870  -10.8690   13.3150 C   0  0  0  0  0  0
  -21.7450   -9.1940   13.0850 C   0  0  0  0  0  0
  -16.2940   -9.9550   14.2820 C   0  0  0  0  0  0
  -20.0690   -7.4780   12.9380 C   0  0  0  0  0  0
  -15.4060  -10.5920   15.1270 C   0  0  0  0  0  0
  -19.1010   -8.4540   12.8690 C   0  0  0  0  0  0
  -15.9740   -9.7700   12.9440 C   0  0  0  0  0  0
  -11.9880  -12.0250   20.2390 C   0  0  0  0  0  0
  -12.6560  -10.9180   19.7320 C   0  0  0  0  0  0
  -14.7610  -10.2250   12.4570 C   0  0  0  0  0  0
  -21.3900   -7.8630   13.0470 C   0  0  0  0  0  0
  -16.9880   -9.2980   10.7010 C   0  0  0  0  0  0
  -15.7550  -10.7520   16.5470 C   0  0  0  0  0  0
  -15.9530  -10.1380   10.0170 C   0  0  0  0  0  0
  -13.6020  -13.3640   19.5150 C   0  0  0  0  0  0
  -14.5990  -12.2240   19.5420 C   0  0  2  0  0  0
  -17.6710   -8.0600   12.7410 C   0  0  0  0  0  0
  -15.6100  -12.3230   18.4330 C   0  0  0  0  0  0
  -16.8680   -9.0800   12.0850 N   0  0  0  0  0  0
  -15.1310  -11.7980   17.1840 N   0  0  0  0  0  0
  -17.8970   -8.8790   10.0010 O   0  0  0  0  0  0
  -16.4940   -9.9310   17.0630 O   0  0  0  0  0  0
  -12.6940  -13.1650   20.5940 O   0  0  0  0  0  0
  -14.0330  -10.9060   19.5620 O   0  0  0  0  0  0
  -14.3120   -9.9780   10.7550 S   0  0  0  0  0  0
  -22.6480   -6.6970   13.1300 Cl  0  0  0  0  0  0
   -8.8363  -10.8340   20.1404 H   0  0  0  0  0  0
  -10.0273   -8.8741   19.2419 H   0  0  0  0  0  0
  -21.0486  -11.2231   13.0354 H   0  0  0  0  0  0
  -13.4839  -11.5353   15.3171 H   0  0  0  0  0  0
  -18.6825  -10.5533   12.8581 H   0  0  0  0  0  0
  -10.0882  -12.8713   20.7880 H   0  0  0  0  0  0
  -12.4888   -8.9089   18.9808 H   0  0  0  0  0  0
  -12.9391  -11.2445   12.9295 H   0  0  0  0  0  0
  -22.7944   -9.4754   13.1730 H   0  0  0  0  0  0
  -17.2487   -9.5966   14.6670 H   0  0  0  0  0  0
  -19.7980   -6.4227   12.9072 H   0  0  0  0  0  0
  -16.2434  -11.1974   10.0755 H   0  0  0  0  0  0
  -15.8752   -9.8369    8.9619 H   0  0  0  0  0  0
  -14.1343  -14.3195   19.6321 H   0  0  0  0  0  0
  -13.0649  -13.3588   18.5550 H   0  0  0  0  0  0
  -15.0857  -12.2937   20.5260 H   0  0  0  0  0  0
  -17.5967   -7.1371   12.1471 H   0  0  0  0  0  0
  -17.2473   -7.8873   13.7413 H   0  0  0  0  0  0
  -15.8743  -13.3784   18.2710 H   0  0  0  0  0  0
  -16.5123  -11.7571   18.7078 H   0  0  0  0  0  0
  -14.2397  -12.2344   16.7096 H   0  0  0  0  0  0
  1  2  2  0  0  0
  1  6  1  0  0  0
  1 34  1  0  0  0
  2  7  1  0  0  0
  2 35  1  0  0  0
  3  5  2  0  0  0
  3  9  1  0  0  0
  3 36  1  0  0  0
  4  8  2  0  0  0
  4 12  1  0  0  0
  4 37  1  0  0  0
  5 13  1  0  0  0
  5 38  1  0  0  0
  6 15  2  0  0  0
  6 39  1  0  0  0
  7 16  2  0  0  0
  7 40  1  0  0  0
  8 17  1  0  0  0
  8 41  1  0  0  0
  9 18  2  0  0  0
  9 42  1  0  0  0
 10 12  2  0  0  0
 10 14  1  0  0  0
 10 43  1  0  0  0
 11 13  2  0  0  0
 11 18  1  0  0  0
 11 44  1  0  0  0
 12 20  1  0  0  0
 13 24  1  0  0  0
 14 17  2  0  0  0
 14 26  1  0  0  0
 15 16  1  0  0  0
 15 30  1  0  0  0
 16 31  1  0  0  0
 17 32  1  0  0  0
 18 33  1  0  0  0
 19 21  1  0  0  0
 19 26  1  0  0  0
 19 28  2  0  0  0
 20 27  1  0  0  0
 20 29  2  0  0  0
 21 32  1  0  0  0
 21 45  1  0  0  0
 21 46  1  0  0  0
 22 23  1  0  0  0
 22 30  1  0  0  0
 22 47  1  0  0  0
 22 48  1  0  0  0
 23 25  1  0  0  0
 23 31  1  0  0  0
 23 49  1  0  0  0
 24 26  1  0  0  0
 24 50  1  0  0  0
 24 51  1  0  0  0
 25 27  1  0  0  0
 25 52  1  0  0  0
 25 53  1  0  0  0
 27 54  1  0  0  0
M  END
> <s_m_source_file>
../5alg_ligand.sdf

> <i_m_source_file_index>
1

> <s_epik_input>
W2NIXTFbY0hdW2NIXVtjSF1jKGMxMilPW0NASF0oW0NIMl1PMilbQ0gyXVtOSF1DKD1PKWMoW2NIXTMpW2NIXVtjSF1jKGMzNClTW0NIMl1DKD1PKU40W0NIMl1jNVtjSF1bY0hdW2NIXWMoQ2wpW2NIXTU=

> <s_epik_cmdline>
J2VwaWtfYXBwJywgJy1pbWFlJywgJ2xpZ2FuZF9wcm8ubWFlJywgJy1vbWFlJywgJ2xpZ2FuZF9wcmVwLm1hZScsICctbXMnLCAnMScsICctcGgnLCAnNycsICctcGh0JywgJzAuNScsICctbnQn

> <r_lp_tautomer_probability>
1

> <r_epik_Ionization_Penalty>
  0.0000

> <r_epik_Ionization_Penalty_Charging>
  0.0000

> <r_epik_Ionization_Penalty_Neutral>
  0.0000

> <r_epik_State_Penalty>
 -0.0000

> <r_epik_Charging_Adjusted_Penalty>
0

> <i_epik_Tot_Q>
0

> <i_epik_Tot_abs_Q>
0

$$$$
