5alj_ligand
                    3D
 Schrodinger Suite 2020-3.
 36 38  0  0  1  0            999 V2000
   19.4420   -7.9850  -13.2090 C   0  0  0  0  0  0
   18.5530   -8.8590  -14.0300 C   0  0  0  0  0  0
   17.5980   -8.2830  -14.8450 C   0  0  0  0  0  0
   16.7700   -9.0880  -15.6030 C   0  0  0  0  0  0
   16.8820  -10.4710  -15.5750 C   0  0  0  0  0  0
   17.8320  -11.0440  -14.7520 C   0  0  0  0  0  0
   18.6620  -10.2400  -13.9920 C   0  0  0  0  0  0
   19.5770  -10.8350  -13.2000 F   0  0  0  0  0  0
   16.0490  -11.3240  -16.3170 N   0  0  0  0  0  0
   15.4560  -11.0460  -17.5620 C   0  0  0  0  0  0
   14.9340  -12.1090  -18.2740 C   0  0  0  0  0  0
   14.3360  -11.8940  -19.4990 C   0  0  0  0  0  0
   14.2710  -10.5880  -19.9970 C   0  0  0  0  0  0
   14.8170   -9.5690  -19.2170 C   0  0  0  0  0  0
   15.3770   -9.7910  -18.0210 N   0  0  0  0  0  0
   14.7930   -8.2670  -19.6870 C   0  0  0  0  0  0
   14.2380   -7.9260  -20.8990 C   0  0  0  0  0  0
   13.6740   -8.9190  -21.6670 C   0  0  0  0  0  0
   13.7020  -10.2220  -21.2100 C   0  0  0  0  0  0
   13.1380  -11.1520  -22.0420 O   0  0  0  0  0  0
   13.7930  -13.1190  -20.1670 C   0  0  0  0  0  0
   19.1872   -6.9302  -13.3893 H   0  0  0  0  0  0
   20.4908   -8.1620  -13.4896 H   0  0  0  0  0  0
   19.3031   -8.2187  -12.1431 H   0  0  0  0  0  0
   17.4982   -7.1985  -14.8898 H   0  0  0  0  0  0
   16.0124   -8.6271  -16.2367 H   0  0  0  0  0  0
   17.9274  -12.1286  -14.7016 H   0  0  0  0  0  0
   15.8024  -12.3242  -15.9313 H   0  0  0  0  0  0
   14.9946  -13.1186  -17.8676 H   0  0  0  0  0  0
   15.2312   -7.4807  -19.0724 H   0  0  0  0  0  0
   14.2449   -6.8918  -21.2434 H   0  0  0  0  0  0
   13.2108   -8.6800  -22.6243 H   0  0  0  0  0  0
   13.9930  -13.9989  -19.5379 H   0  0  0  0  0  0
   14.2793  -13.2494  -21.1450 H   0  0  0  0  0  0
   12.7078  -13.0087  -20.3089 H   0  0  0  0  0  0
   15.7692   -8.9590  -17.4177 H   0  0  0  0  0  0
  1  2  1  0  0  0
  1 22  1  0  0  0
  1 23  1  0  0  0
  1 24  1  0  0  0
  2  3  2  0  0  0
  2  7  1  0  0  0
  3  4  1  0  0  0
  3 25  1  0  0  0
  4  5  2  0  0  0
  4 26  1  0  0  0
  5  6  1  0  0  0
  5  9  1  0  0  0
  6  7  2  0  0  0
  6 27  1  0  0  0
  7  8  1  0  0  0
  9 10  1  0  0  0
  9 28  1  0  0  0
 10 11  2  0  0  0
 10 15  1  0  0  0
 11 12  1  0  0  0
 11 29  1  0  0  0
 12 13  2  0  0  0
 12 21  1  0  0  0
 13 14  1  0  0  0
 13 19  1  0  0  0
 14 15  1  0  0  0
 14 16  2  0  0  0
 15 36  1  0  0  0
 16 17  1  0  0  0
 16 30  1  0  0  0
 17 18  2  0  0  0
 17 31  1  0  0  0
 18 19  1  0  0  0
 18 32  1  0  0  0
 19 20  2  0  0  0
 21 33  1  0  0  0
 21 34  1  0  0  0
 21 35  1  0  0  0
M  END
> <s_m_source_file>
../5alj_ligand.sdf

> <i_m_source_file_index>
1

> <s_epik_input>
W0NIM11jMVtjSF1bY0hdYyhbY0hdYzFGKVtOSF1jKFtjSF1jMltDSDNdKW5jKGMyMylbY0hdW2NIXVtjSF1jM1tPSF0=

> <s_epik_cmdline>
J2VwaWtfYXBwJywgJy1pbWFlJywgJ2xpZ2FuZF9wcm8ubWFlJywgJy1vbWFlJywgJ2xpZ2FuZF9wcmVwLm1hZScsICctbXMnLCAnMScsICctcGgnLCAnNycsICctcGh0JywgJzAuNScsICctbnQn

> <r_lp_tautomer_probability>
1

> <r_epik_Ionization_Penalty>
  0.0892

> <r_epik_Ionization_Penalty_Charging>
  0.0892

> <r_epik_Ionization_Penalty_Neutral>
  0.0000

> <r_epik_State_Penalty>
 -0.0000

> <r_epik_Charging_Adjusted_Penalty>
0.0891840408933034

> <i_epik_Tot_Q>
0

> <i_epik_Tot_abs_Q>
0

$$$$
