5alk_ligand
                    3D
 Schrodinger Suite 2020-3.
 42 44  0  0  1  0            999 V2000
   16.0250   10.2830   12.2330 C   0  0  0  0  0  0
   17.3720    9.8670   11.9050 C   0  0  0  0  0  0
   17.6930    9.5640   10.4400 C   0  0  0  0  0  0
   16.5620    9.7090    9.5160 C   0  0  0  0  0  0
   15.0720   10.3530   11.1750 C   0  0  0  0  0  0
   15.2860   10.7090   13.4140 C   0  0  0  0  0  0
   18.4480    9.7560   13.0020 C   0  0  0  0  0  0
   19.1400    9.1270    9.9850 C   0  0  0  0  0  0
   19.8390    9.3160   12.6020 C   0  0  0  0  0  0
   20.5850   10.5770   12.2880 C   0  0  0  0  0  0
   20.4510    8.7130   13.8100 C   0  0  0  0  0  0
   15.5710    6.8890    5.8670 C   0  0  0  0  0  0
   16.8640    9.4320    8.1110 C   0  0  0  0  0  0
   16.5610    7.8810    6.4110 C   0  0  0  0  0  0
   15.8110    8.7320    7.3670 C   0  0  0  0  0  0
   15.2430   10.0770    9.9040 N   0  0  0  0  0  0
   14.0000   11.0250   13.0010 N   0  0  0  0  0  0
   13.9120   10.8100   11.6540 N   0  3  0  0  0  0
   15.8380   10.8080   14.6480 N   0  0  0  0  0  0
   19.8470    7.9880   11.2340 S   0  0  0  0  0  0
   18.5885   10.7375   13.4784 H   0  0  0  0  0  0
   18.1269    9.0242   13.7579 H   0  0  0  0  0  0
   19.0800    8.6166    9.0124 H   0  0  0  0  0  0
   19.7799   10.0170    9.8932 H   0  0  0  0  0  0
   20.5142   11.2671   13.1416 H   0  0  0  0  0  0
   20.1468   11.0500   11.3968 H   0  0  0  0  0  0
   21.6416   10.3396   12.0951 H   0  0  0  0  0  0
   20.4633    9.4535   14.6233 H   0  0  0  0  0  0
   21.4810    8.4011   13.5824 H   0  0  0  0  0  0
   19.8628    7.8369   14.1206 H   0  0  0  0  0  0
   16.0738    6.2262    5.1473 H   0  0  0  0  0  0
   14.7539    7.4255    5.3625 H   0  0  0  0  0  0
   15.1610    6.2895    6.6931 H   0  0  0  0  0  0
   17.0425   10.3791    7.5807 H   0  0  0  0  0  0
   17.7625    8.8007    8.0466 H   0  0  0  0  0  0
   17.3781    7.3445    6.9155 H   0  0  0  0  0  0
   16.9711    8.4805    5.5849 H   0  0  0  0  0  0
   15.2022    8.1380    8.0645 H   0  0  0  0  0  0
   15.1715    9.4675    6.8570 H   0  0  0  0  0  0
   16.8852   10.5114   14.8075 H   0  0  0  0  0  0
   15.2388   11.1849   15.4899 H   0  0  0  0  0  0
   12.9699   11.0154   11.1246 H   0  0  0  0  0  0
  1  2  2  0  0  0
  1  5  1  0  0  0
  1  6  1  0  0  0
  2  3  1  0  0  0
  2  7  1  0  0  0
  3  4  2  0  0  0
  3  8  1  0  0  0
  4 13  1  0  0  0
  4 16  1  0  0  0
  5 16  2  0  0  0
  5 18  1  0  0  0
  6 17  2  0  0  0
  6 19  1  0  0  0
  7  9  1  0  0  0
  7 21  1  0  0  0
  7 22  1  0  0  0
  8 20  1  0  0  0
  8 23  1  0  0  0
  8 24  1  0  0  0
  9 10  1  0  0  0
  9 11  1  0  0  0
  9 20  1  0  0  0
 10 25  1  0  0  0
 10 26  1  0  0  0
 10 27  1  0  0  0
 11 28  1  0  0  0
 11 29  1  0  0  0
 11 30  1  0  0  0
 12 14  1  0  0  0
 12 31  1  0  0  0
 12 32  1  0  0  0
 12 33  1  0  0  0
 13 15  1  0  0  0
 13 34  1  0  0  0
 13 35  1  0  0  0
 14 15  1  0  0  0
 14 36  1  0  0  0
 14 37  1  0  0  0
 15 38  1  0  0  0
 15 39  1  0  0  0
 17 18  1  0  0  0
 18 42  1  0  0  0
 19 40  1  0  0  0
 19 41  1  0  0  0
M  CHG  1  18   1
M  END
> <s_m_source_file>
../5alk_ligand.sdf

> <i_m_source_file_index>
1

> <s_epik_input>
W0NIMl0xQyhbQ0gzXSkoW0NIM10pU1tDSDJdYyhjMWMyMyljKFtDSDJdW0NIMl1bQ0gyXVtDSDNdKW5jMltuSF1uYzNbTkgyXQ==

> <s_epik_cmdline>
J2VwaWtfYXBwJywgJy1pbWFlJywgJ2xpZ2FuZF9wcm8ubWFlJywgJy1vbWFlJywgJ2xpZ2FuZF9wcmVwLm1hZScsICctbXMnLCAnMScsICctcGgnLCAnNycsICctcGh0JywgJzAuNScsICctbnQn

> <r_epik_Ionization_Penalty>
  0.0292

> <r_epik_Ionization_Penalty_Charging>
  0.0000

> <r_epik_Ionization_Penalty_Neutral>
  0.0292

> <r_epik_State_Penalty>
  0.0391

> <r_epik_Charging_Adjusted_Penalty>
0.0390968783600219

> <i_epik_Tot_Q>
1

> <i_epik_Tot_abs_Q>
1

> <s_epik_Chemistry_Notes>
This compound has an imine and may undergo hydrolysis.

$$$$
