5all_ligand
                    3D
 Schrodinger Suite 2020-3.
 31 31  0  0  1  0            999 V2000
   19.0250    9.5450   13.6920 C   0  0  0  0  0  0
   18.5150    8.8100   11.3360 C   0  0  0  0  0  0
   17.0950   10.5460   12.4530 C   0  0  0  0  0  0
   19.5960    9.0160   12.3840 C   0  0  2  0  0  0
   18.2260   10.8020   13.4300 C   0  0  1  0  0  0
   17.6950   10.0800   11.1410 C   0  0  2  0  0  0
   20.2800    7.7030   12.6430 C   0  0  0  0  0  0
   17.8550   11.5580   14.6910 C   0  0  0  0  0  0
   16.5970    9.8590   10.1350 C   0  0  0  0  0  0
   16.7110   10.9970   15.3940 N   0  3  0  0  0  0
   17.1740    9.5880    8.8700 O   0  0  0  0  0  0
   18.3695    8.7839   14.1403 H   0  0  0  0  0  0
   19.8478    9.7745   14.3851 H   0  0  0  0  0  0
   18.9809    8.5400   10.3768 H   0  0  0  0  0  0
   17.8421    8.0013   11.6573 H   0  0  0  0  0  0
   16.4282    9.7711   12.8590 H   0  0  0  0  0  0
   16.5264   11.4749   12.2987 H   0  0  0  0  0  0
   20.3161    9.7525   11.9979 H   0  0  0  0  0  0
   18.8878   11.5146   12.9160 H   0  0  0  0  0  0
   18.3659   10.8632   10.7582 H   0  0  0  0  0  0
   21.0650    7.8418   13.4010 H   0  0  0  0  0  0
   20.7320    7.3348   11.7102 H   0  0  0  0  0  0
   19.5436    6.9716   13.0074 H   0  0  0  0  0  0
   18.7055   11.5473   15.3885 H   0  0  0  0  0  0
   17.6041   12.5979   14.4347 H   0  0  0  0  0  0
   15.9779    9.0058   10.4494 H   0  0  0  0  0  0
   15.9717   10.7617   10.0704 H   0  0  0  0  0  0
   16.5035   11.5958   16.2931 H   0  0  0  0  0  0
   16.9331    9.9603   15.6871 H   0  0  0  0  0  0
   15.8317   11.0109   14.7332 H   0  0  0  0  0  0
   16.5280    9.3980    8.0002 H   0  0  0  0  0  0
  1  4  1  0  0  0
  1  5  1  0  0  0
  1 12  1  0  0  0
  1 13  1  0  0  0
  2  4  1  0  0  0
  2  6  1  0  0  0
  2 14  1  0  0  0
  2 15  1  0  0  0
  3  5  1  0  0  0
  3  6  1  0  0  0
  3 16  1  0  0  0
  3 17  1  0  0  0
  4  7  1  0  0  0
  4 18  1  0  0  0
  5  8  1  0  0  0
  5 19  1  0  0  0
  6  9  1  0  0  0
  6 20  1  0  0  0
  7 21  1  0  0  0
  7 22  1  0  0  0
  7 23  1  0  0  0
  8 10  1  0  0  0
  8 24  1  0  0  0
  8 25  1  0  0  0
  9 11  1  0  0  0
  9 26  1  0  0  0
  9 27  1  0  0  0
 10 28  1  0  0  0
 10 29  1  0  0  0
 10 30  1  0  0  0
 11 31  1  0  0  0
M  CHG  1  10   1
M  END
> <s_m_source_file>
../5all_ligand.sdf

> <i_m_source_file_index>
1

> <s_epik_input>
W0NIM11bQ0BASF0xW0NIMl1bQ0BIXShbQ0gyXVtOSDMrXSlbQ0gyXVtDQEBIXShbQ0gyXTEpW0NIMl1bT0hd

> <s_epik_cmdline>
J2VwaWtfYXBwJywgJy1pbWFlJywgJ2xpZ2FuZF9wcm8ubWFlJywgJy1vbWFlJywgJ2xpZ2FuZF9wcmVwLm1hZScsICctbXMnLCAnMScsICctcGgnLCAnNycsICctcGh0JywgJzAuNScsICctbnQn

> <r_lp_tautomer_probability>
1

> <r_epik_Ionization_Penalty>
  0.0003

> <r_epik_Ionization_Penalty_Charging>
  0.0003

> <r_epik_Ionization_Penalty_Neutral>
  0.0000

> <r_epik_State_Penalty>
 -0.0000

> <r_epik_Charging_Adjusted_Penalty>
0.000304030512153429

> <i_epik_Tot_Q>
1

> <i_epik_Tot_abs_Q>
1

$$$$
