5alm_ligand
                    3D
 Schrodinger Suite 2020-3.
 43 45  0  0  1  0            999 V2000
   13.0120   10.0570   19.5840 C   0  0  0  0  0  0
   14.3350   10.9620   21.3580 C   0  0  0  0  0  0
   11.9190    9.9910   20.4180 C   0  0  0  0  0  0
   13.2390   10.8950   22.1950 C   0  0  0  0  0  0
   14.2170   10.5620   20.0430 C   0  0  0  0  0  0
   12.0320   10.4120   21.7250 C   0  0  0  0  0  0
   18.9030   10.9850   13.1130 C   0  0  0  0  0  0
   17.4660   10.7140   12.8010 C   0  0  0  0  0  0
   14.4620   10.7880   16.9320 C   0  0  0  0  0  0
   15.3820   10.6340   15.7550 C   0  0  0  0  0  0
   16.6690   11.4930   17.4580 C   0  0  0  0  0  0
   18.0110   10.3920   14.1640 C   0  0  0  0  0  0
   15.2680   11.4480   18.0330 C   0  0  1  0  0  0
   14.7610   12.8560   18.3050 C   0  0  0  0  0  0
   10.9890    8.6900   23.4810 C   0  0  0  0  0  0
   17.6170   11.2590   15.3150 C   0  0  0  0  0  0
   16.7370   10.6120   16.2890 N   0  3  2  0  0  0
   15.3570   10.6380   19.2310 O   0  0  0  0  0  0
   10.6130   10.3100   22.7740 S   0  0  0  0  0  0
   12.9284    9.7091   18.5544 H   0  0  0  0  0  0
   15.2896   11.3294   21.7347 H   0  0  0  0  0  0
   10.9688    9.6076   20.0463 H   0  0  0  0  0  0
   13.3258   11.2242   23.2305 H   0  0  0  0  0  0
   19.5420   10.4089   12.4276 H   0  0  0  0  0  0
   19.1086   12.0587   12.9906 H   0  0  0  0  0  0
   16.9669   11.6548   12.5256 H   0  0  0  0  0  0
   17.4002   10.0050   11.9626 H   0  0  0  0  0  0
   13.6036   11.4141   16.6470 H   0  0  0  0  0  0
   14.1040    9.7976   17.2496 H   0  0  0  0  0  0
   15.1513    9.6955   15.2297 H   0  0  0  0  0  0
   15.2439   11.4821   15.0682 H   0  0  0  0  0  0
   16.9095   12.5238   17.1586 H   0  0  0  0  0  0
   17.3884   11.1547   18.2182 H   0  0  0  0  0  0
   18.0347    9.4948   14.7999 H   0  0  0  0  0  0
   14.7161   13.4183   17.3607 H   0  0  0  0  0  0
   15.4443   13.3635   19.0018 H   0  0  0  0  0  0
   13.7560   12.8044   18.7492 H   0  0  0  0  0  0
   10.2016    8.4105   24.1964 H   0  0  0  0  0  0
   11.9579    8.7324   24.0001 H   0  0  0  0  0  0
   11.0364    7.9410   22.6768 H   0  0  0  0  0  0
   18.5181   11.5769   15.8599 H   0  0  0  0  0  0
   17.0832   12.1450   14.9408 H   0  0  0  0  0  0
   17.0932    9.5953   16.5114 H   0  0  0  0  0  0
  1  3  2  0  0  0
  1  5  1  0  0  0
  1 20  1  0  0  0
  2  4  1  0  0  0
  2  5  2  0  0  0
  2 21  1  0  0  0
  3  6  1  0  0  0
  3 22  1  0  0  0
  4  6  2  0  0  0
  4 23  1  0  0  0
  5 18  1  0  0  0
  6 19  1  0  0  0
  7  8  1  0  0  0
  7 12  1  0  0  0
  7 24  1  0  0  0
  7 25  1  0  0  0
  8 12  1  0  0  0
  8 26  1  0  0  0
  8 27  1  0  0  0
  9 10  1  0  0  0
  9 13  1  0  0  0
  9 28  1  0  0  0
  9 29  1  0  0  0
 10 17  1  0  0  0
 10 30  1  0  0  0
 10 31  1  0  0  0
 11 13  1  0  0  0
 11 17  1  0  0  0
 11 32  1  0  0  0
 11 33  1  0  0  0
 12 16  1  0  0  0
 12 34  1  0  0  0
 13 14  1  0  0  0
 13 18  1  0  0  0
 14 35  1  0  0  0
 14 36  1  0  0  0
 14 37  1  0  0  0
 15 19  1  0  0  0
 15 38  1  0  0  0
 15 39  1  0  0  0
 15 40  1  0  0  0
 16 17  1  0  0  0
 16 41  1  0  0  0
 16 42  1  0  0  0
 17 43  1  0  0  0
M  CHG  1  17   1
M  END
> <s_m_source_file>
../5alm_ligand.sdf

> <i_m_source_file_index>
1

> <s_epik_input>
W2NIXTFbY0hdYyhTW0NIM10pW2NIXVtjSF1jMU9bQ0BdMihbQ0gzXSlbQ0gyXVtDSDJdW05ASCtdKFtDSDJdMilbQ0gyXVtDSF0zW0NIMl1bQ0gyXTM=

> <s_epik_cmdline>
J2VwaWtfYXBwJywgJy1pbWFlJywgJ2xpZ2FuZF9wcm8ubWFlJywgJy1vbWFlJywgJ2xpZ2FuZF9wcmVwLm1hZScsICctbXMnLCAnMScsICctcGgnLCAnNycsICctcGh0JywgJzAuNScsICctbnQn

> <r_lp_tautomer_probability>
1

> <r_epik_Ionization_Penalty>
  0.0028

> <r_epik_Ionization_Penalty_Charging>
  0.0028

> <r_epik_Ionization_Penalty_Neutral>
  0.0000

> <r_epik_State_Penalty>
 -0.0000

> <r_epik_Charging_Adjusted_Penalty>
0.00275845909918686

> <i_epik_Tot_Q>
1

> <i_epik_Tot_abs_Q>
1

$$$$
