5aln_ligand
                    3D
 Schrodinger Suite 2020-3.
 33 35  0  0  1  0            999 V2000
   15.6860    9.3940    7.1450 C   0  0  0  0  0  0
   15.0370    8.7520    8.2500 C   0  0  0  0  0  0
   15.7280    8.9860    9.5110 C   0  0  0  0  0  0
   17.1080    8.7770    9.9400 C   0  0  0  0  0  0
   17.4630    9.1240   11.3170 C   0  0  0  0  0  0
   16.4840    9.6590   12.1850 C   0  0  0  0  0  0
   15.1520    9.8750   11.7780 C   0  0  0  0  0  0
   14.7880    9.5270   10.4370 C   0  0  0  0  0  0
   13.5690    9.6660    9.8580 N   0  0  0  0  0  0
   13.6060    9.2150    8.5140 C   0  0  0  0  0  0
   12.7060    9.1810    7.6900 O   0  0  0  0  0  0
   18.7220    8.9320   11.7440 C   0  0  0  0  0  0
   19.3590    7.5330   11.4040 C   0  0  0  0  0  0
   20.6640    7.3420   11.8350 C   0  0  0  0  0  0
   21.3710    8.3510   12.5470 C   0  0  0  0  0  0
   20.7920    9.6620   12.8580 C   0  0  0  0  0  0
   19.4770    9.9750   12.4830 C   0  0  0  0  0  0
   22.6830    7.9940   12.9160 F   0  0  0  0  0  0
   14.7580    7.2010    8.2200 C   0  0  0  0  0  0
   15.7892   10.4689    7.3546 H   0  0  0  0  0  0
   15.0845    9.2540    6.2348 H   0  0  0  0  0  0
   16.6824    8.9518    6.9977 H   0  0  0  0  0  0
   17.8530    8.3739    9.2540 H   0  0  0  0  0  0
   16.7694    9.9136   13.2057 H   0  0  0  0  0  0
   14.4182   10.2957   12.4655 H   0  0  0  0  0  0
   12.7301   10.0818   10.4353 H   0  0  0  0  0  0
   18.8091    6.7624   10.8637 H   0  0  0  0  0  0
   21.1602    6.3950   11.6228 H   0  0  0  0  0  0
   21.3912   10.4028   13.3874 H   0  0  0  0  0  0
   19.0301   10.9397   12.7232 H   0  0  0  0  0  0
   15.6992    6.6627    8.0348 H   0  0  0  0  0  0
   14.0410    6.9729    7.4175 H   0  0  0  0  0  0
   14.3390    6.8851    9.1868 H   0  0  0  0  0  0
  1  2  1  0  0  0
  1 20  1  0  0  0
  1 21  1  0  0  0
  1 22  1  0  0  0
  2  3  1  0  0  0
  2 10  1  0  0  0
  2 19  1  0  0  0
  3  4  2  0  0  0
  3  8  1  0  0  0
  4  5  1  0  0  0
  4 23  1  0  0  0
  5  6  2  0  0  0
  5 12  1  0  0  0
  6  7  1  0  0  0
  6 24  1  0  0  0
  7  8  2  0  0  0
  7 25  1  0  0  0
  8  9  1  0  0  0
  9 10  1  0  0  0
  9 26  1  0  0  0
 10 11  2  0  0  0
 12 13  2  0  0  0
 12 17  1  0  0  0
 13 14  1  0  0  0
 13 27  1  0  0  0
 14 15  2  0  0  0
 14 28  1  0  0  0
 15 16  1  0  0  0
 15 18  1  0  0  0
 16 17  2  0  0  0
 16 29  1  0  0  0
 17 30  1  0  0  0
 19 31  1  0  0  0
 19 32  1  0  0  0
 19 33  1  0  0  0
M  END
> <s_m_source_file>
../5aln_ligand.sdf

> <i_m_source_file_index>
1

> <s_epik_input>
W0NIM11DMShbQ0gzXSlDKD1PKVtOSF1jKGMxMilbY0hdW2NIXWMoW2NIXTIpLWMzW2NIXVtjSF1jKEYpW2NIXVtjSF0z

> <s_epik_cmdline>
J2VwaWtfYXBwJywgJy1pbWFlJywgJ2xpZ2FuZF9wcm8ubWFlJywgJy1vbWFlJywgJ2xpZ2FuZF9wcmVwLm1hZScsICctbXMnLCAnMScsICctcGgnLCAnNycsICctcGh0JywgJzAuNScsICctbnQn

> <r_lp_tautomer_probability>
1

> <r_epik_Ionization_Penalty>
  0.0000

> <r_epik_Ionization_Penalty_Charging>
  0.0000

> <r_epik_Ionization_Penalty_Neutral>
  0.0000

> <r_epik_State_Penalty>
 -0.0000

> <r_epik_Charging_Adjusted_Penalty>
0

> <i_epik_Tot_Q>
0

> <i_epik_Tot_abs_Q>
0

$$$$
