5alp_ligand
                    3D
 Schrodinger Suite 2020-3.
 41 43  0  0  1  0            999 V2000
   11.8780   -8.7430  -22.4980 C   0  0  0  0  0  0
   12.9390   -9.4750  -22.9950 C   0  0  0  0  0  0
   13.6680  -10.2840  -22.1380 C   0  0  0  0  0  0
   13.3520  -10.3600  -20.8050 C   0  0  0  0  0  0
   12.2900   -9.6310  -20.3320 C   0  0  0  0  0  0
   11.5370   -8.8070  -21.1500 C   0  0  0  0  0  0
   14.1640  -11.2500  -19.9370 C   0  0  1  0  0  0
   14.6240  -10.5330  -18.6910 C   0  0  0  0  0  0
   15.3540  -11.3760  -17.7440 N   0  0  0  0  0  0
   15.5300  -12.7710  -18.0850 C   0  0  0  0  0  0
   14.2490  -13.5440  -18.1950 C   0  0  0  0  0  0
   13.2290  -12.7360  -19.4760 S   0  0  0  0  0  0
   16.1520  -10.7600  -16.7920 C   0  0  0  0  0  0
   16.6210   -9.6480  -17.0170 O   0  0  0  0  0  0
   16.3320  -11.4410  -15.6010 N   0  0  0  0  0  0
   17.2820  -11.0010  -14.6650 C   0  0  0  0  0  0
   18.1710  -11.9150  -14.1610 C   0  0  0  0  0  0
   19.0900  -11.5090  -13.2070 C   0  0  0  0  0  0
   19.0730  -10.1880  -12.8160 C   0  0  0  0  0  0
   18.1680   -9.2680  -13.2950 C   0  0  0  0  0  0
   17.2450   -9.6950  -14.2380 C   0  0  0  0  0  0
   20.0400   -9.7480  -11.8270 N   0  3  0  0  0  0
   20.7990  -10.6300  -11.3900 O   0  0  0  0  0  0
   19.9790   -8.5670  -11.4620 O   0  5  0  0  0  0
   11.3008   -8.1075  -23.1697 H   0  0  0  0  0  0
   13.2003   -9.4167  -24.0516 H   0  0  0  0  0  0
   14.5025  -10.8670  -22.5276 H   0  0  0  0  0  0
   12.0306   -9.7034  -19.2758 H   0  0  0  0  0  0
   10.7043   -8.2272  -20.7518 H   0  0  0  0  0  0
   15.0826  -11.3364  -20.5359 H   0  0  0  0  0  0
   15.2955   -9.7075  -18.9698 H   0  0  0  0  0  0
   13.7511  -10.1308  -18.1560 H   0  0  0  0  0  0
   16.0385  -12.8494  -19.0572 H   0  0  0  0  0  0
   16.1385  -13.2635  -17.3122 H   0  0  0  0  0  0
   14.4711  -14.5832  -18.4793 H   0  0  0  0  0  0
   13.7292  -13.5322  -17.2256 H   0  0  0  0  0  0
   15.7286  -12.3342  -15.3815 H   0  0  0  0  0  0
   18.1550  -12.9486  -14.5067 H   0  0  0  0  0  0
   19.8041  -12.2127  -12.7792 H   0  0  0  0  0  0
   18.1765   -8.2361  -12.9441 H   0  0  0  0  0  0
   16.5007   -9.0046  -14.6349 H   0  0  0  0  0  0
  1  2  2  0  0  0
  1  6  1  0  0  0
  1 25  1  0  0  0
  2  3  1  0  0  0
  2 26  1  0  0  0
  3  4  2  0  0  0
  3 27  1  0  0  0
  4  5  1  0  0  0
  4  7  1  0  0  0
  5  6  2  0  0  0
  5 28  1  0  0  0
  6 29  1  0  0  0
  7  8  1  0  0  0
  7 12  1  0  0  0
  7 30  1  0  0  0
  8  9  1  0  0  0
  8 31  1  0  0  0
  8 32  1  0  0  0
  9 10  1  0  0  0
  9 13  1  0  0  0
 10 11  1  0  0  0
 10 33  1  0  0  0
 10 34  1  0  0  0
 11 12  1  0  0  0
 11 35  1  0  0  0
 11 36  1  0  0  0
 13 14  2  0  0  0
 13 15  1  0  0  0
 15 16  1  0  0  0
 15 37  1  0  0  0
 16 17  2  0  0  0
 16 21  1  0  0  0
 17 18  1  0  0  0
 17 38  1  0  0  0
 18 19  2  0  0  0
 18 39  1  0  0  0
 19 20  1  0  0  0
 19 22  1  0  0  0
 20 21  2  0  0  0
 20 40  1  0  0  0
 21 41  1  0  0  0
 22 23  2  0  0  0
 22 24  1  0  0  0
M  CHG  2  22   1  24  -1
M  END
> <s_m_source_file>
../5alp_ligand.sdf

> <i_m_source_file_index>
1

> <s_epik_input>
W2NIXTFbY0hdW2NIXVtjSF1bY0hdYzFbQ0BIXTJbQ0gyXU4oW0NIMl1bQ0gyXVMyKUMoPU8pW05IXWMzW2NIXVtjSF1jKFtOK10oPU8pW08tXSlbY0hdW2NIXTM=

> <s_epik_cmdline>
J2VwaWtfYXBwJywgJy1pbWFlJywgJ2xpZ2FuZF9wcm8ubWFlJywgJy1vbWFlJywgJ2xpZ2FuZF9wcmVwLm1hZScsICctbXMnLCAnMScsICctcGgnLCAnNycsICctcGh0JywgJzAuNScsICctbnQn

> <r_lp_tautomer_probability>
1

> <r_epik_Ionization_Penalty>
  0.0000

> <r_epik_Ionization_Penalty_Charging>
  0.0000

> <r_epik_Ionization_Penalty_Neutral>
  0.0000

> <r_epik_State_Penalty>
 -0.0000

> <r_epik_Charging_Adjusted_Penalty>
0

> <i_epik_Tot_Q>
0

> <i_epik_Tot_abs_Q>
2

$$$$
