5alt_ligand
                    3D
 Schrodinger Suite 2020-3.
 28 30  0  0  1  0            999 V2000
   12.7020   11.7760   19.4940 C   0  0  0  0  0  0
   12.1660    9.8000   21.6570 C   0  0  0  0  0  0
   13.7190   10.9230   23.0110 C   0  0  0  0  0  0
   13.3020   12.4760   18.4780 C   0  0  0  0  0  0
   14.8620   11.9140   20.3160 C   0  0  0  0  0  0
   13.5880   11.4420   20.5620 C   0  0  0  0  0  0
   13.1860   10.7200   21.7510 C   0  0  0  0  0  0
   11.7260    9.1130   22.7730 C   0  0  0  0  0  0
   12.3320    9.3840   23.9990 C   0  0  0  0  0  0
   10.6820    8.1510   22.5580 C   0  0  0  0  0  0
    8.8260    5.9880   20.6150 C   0  0  0  0  0  0
   13.3150   10.2890   24.1170 N   0  0  0  0  0  0
    9.8920    7.6050   23.5420 N   0  0  0  0  0  0
   10.4310    7.6590   21.3370 N   0  0  0  0  0  0
    9.1010    6.7390   22.9450 N   0  0  0  0  0  0
    9.4520    6.8090   21.6470 N   0  0  3  0  0  0
   11.9280    8.7170   25.1630 N   0  0  0  0  0  0
   14.9540   12.7340   18.8120 S   0  0  0  0  0  0
   11.6474   11.5007   19.4863 H   0  0  0  0  0  0
   11.6994    9.6109   20.6902 H   0  0  0  0  0  0
   14.5246   11.6506   23.1094 H   0  0  0  0  0  0
   12.7915   12.8207   17.5787 H   0  0  0  0  0  0
   15.7053   11.7819   20.9938 H   0  0  0  0  0  0
    9.2758    6.2206   19.6385 H   0  0  0  0  0  0
    7.7472    6.2005   20.5817 H   0  0  0  0  0  0
    8.9833    4.9243   20.8472 H   0  0  0  0  0  0
   11.1255    7.9661   25.1162 H   0  0  0  0  0  0
   12.4133    8.9442   26.1237 H   0  0  0  0  0  0
  1  4  2  0  0  0
  1  6  1  0  0  0
  1 19  1  0  0  0
  2  7  2  0  0  0
  2  8  1  0  0  0
  2 20  1  0  0  0
  3  7  1  0  0  0
  3 12  2  0  0  0
  3 21  1  0  0  0
  4 18  1  0  0  0
  4 22  1  0  0  0
  5  6  2  0  0  0
  5 18  1  0  0  0
  5 23  1  0  0  0
  6  7  1  0  0  0
  8  9  2  0  0  0
  8 10  1  0  0  0
  9 12  1  0  0  0
  9 17  1  0  0  0
 10 13  1  0  0  0
 10 14  2  0  0  0
 11 16  1  0  0  0
 11 24  1  0  0  0
 11 25  1  0  0  0
 11 26  1  0  0  0
 13 15  2  0  0  0
 14 16  1  0  0  0
 15 16  1  0  0  0
 17 27  1  0  0  0
 17 28  1  0  0  0
M  END
> <s_m_source_file>
../5alt_ligand.sdf

> <i_m_source_file_index>
1

> <s_epik_input>
W2NIXTFzW2NIXVtjSF1jMS1jMltjSF1jKGMoW05IMl0pbltjSF0yKS1jM25ubihuMylbQ0gzXQ==

> <s_epik_cmdline>
J2VwaWtfYXBwJywgJy1pbWFlJywgJ2xpZ2FuZF9wcm8ubWFlJywgJy1vbWFlJywgJ2xpZ2FuZF9wcmVwLm1hZScsICctbXMnLCAnMScsICctcGgnLCAnNycsICctcGh0JywgJzAuNScsICctbnQn

> <r_lp_tautomer_probability>
1

> <r_epik_Ionization_Penalty>
  0.0007

> <r_epik_Ionization_Penalty_Charging>
  0.0000

> <r_epik_Ionization_Penalty_Neutral>
  0.0007

> <r_epik_State_Penalty>
 -0.0000

> <r_epik_Charging_Adjusted_Penalty>
0

> <i_epik_Tot_Q>
0

> <i_epik_Tot_abs_Q>
0

$$$$
