5alu_ligand
                    3D
 Schrodinger Suite 2020-3.
 65 70  0  0  1  0            999 V2000
  -19.0990  -61.7650  -12.1500 C   0  0  0  0  0  0
  -19.4790  -61.6200  -10.8330 C   0  0  0  0  0  0
  -18.6010  -60.9580   -9.9920 C   0  0  0  0  0  0
  -17.4410  -60.4840  -10.4670 N   0  0  0  0  0  0
  -17.1400  -60.6610  -11.7600 C   0  0  0  0  0  0
  -17.9320  -61.3140  -12.6300 N   0  0  0  0  0  0
  -15.8840  -60.1420  -12.1340 N   0  0  0  0  0  0
  -18.8520  -60.7360   -8.5280 C   0  0  0  0  0  0
  -17.6900  -61.1970   -7.6760 C   0  0  0  0  0  0
  -17.8790  -60.4960   -6.3620 C   0  0  0  0  0  0
  -18.6580  -59.2470   -6.6760 C   0  0  0  0  0  0
  -19.0040  -59.2850   -8.1510 C   0  0  0  0  0  0
  -20.8040  -62.1170  -10.4110 C   0  0  0  0  0  0
  -21.5760  -61.3220   -9.8770 O   0  0  0  0  0  0
  -21.0640  -63.4460  -10.7160 N   0  0  0  0  0  0
  -22.3940  -64.0010  -10.4930 C   0  0  2  0  0  0
  -22.3750  -65.1660   -9.5130 C   0  0  2  0  0  0
  -21.6800  -66.3690  -10.1190 C   0  0  0  0  0  0
  -22.3800  -66.7590  -11.4140 C   0  0  2  0  0  0
  -22.3860  -65.6050  -12.4010 C   0  0  0  0  0  0
  -23.0870  -64.4070  -11.7880 C   0  0  1  0  0  0
  -24.5320  -64.7710  -11.4490 C   0  0  0  0  0  0
  -24.5350  -65.9380  -10.4820 C   0  0  1  0  0  0
  -23.8200  -67.1290  -11.1210 C   0  0  0  0  0  0
  -23.8080  -65.5500   -9.2000 C   0  0  0  0  0  0
  -25.8890  -66.2320  -10.1730 O   0  0  0  0  0  0
  -15.6390  -59.9350  -13.5610 C   0  0  1  0  0  0
  -14.9190  -58.6350  -13.7950 C   0  0  0  0  0  0
  -13.4700  -58.9770  -13.5670 C   0  0  0  0  0  0
  -13.3530  -60.3970  -13.5460 O   0  0  0  0  0  0
  -14.6010  -60.9460  -13.9570 C   0  0  0  0  0  0
  -19.7805  -62.2708  -12.8339 H   0  0  0  0  0  0
  -15.1027  -59.8946  -11.4003 H   0  0  0  0  0  0
  -19.7798  -61.3011   -8.3551 H   0  0  0  0  0  0
  -17.7282  -62.2907   -7.5647 H   0  0  0  0  0  0
  -16.7444  -60.9105   -8.1595 H   0  0  0  0  0  0
  -18.4331  -61.1509   -5.6735 H   0  0  0  0  0  0
  -16.8964  -60.2567   -5.9294 H   0  0  0  0  0  0
  -19.5736  -59.2231   -6.0668 H   0  0  0  0  0  0
  -18.0428  -58.3641   -6.4480 H   0  0  0  0  0  0
  -18.3140  -58.6755   -8.7530 H   0  0  0  0  0  0
  -20.0386  -58.9632   -8.3411 H   0  0  0  0  0  0
  -20.2649  -64.0807  -11.1265 H   0  0  0  0  0  0
  -22.9392  -63.1567  -10.0459 H   0  0  0  0  0  0
  -21.8343  -64.8646   -8.6037 H   0  0  0  0  0  0
  -20.6301  -66.1179  -10.3304 H   0  0  0  0  0  0
  -21.7205  -67.2106   -9.4119 H   0  0  0  0  0  0
  -21.8384  -67.6113  -11.8503 H   0  0  0  0  0  0
  -21.3504  -65.3313  -12.6513 H   0  0  0  0  0  0
  -22.9166  -65.9077  -13.3158 H   0  0  0  0  0  0
  -23.0506  -63.5830  -12.5158 H   0  0  0  0  0  0
  -25.0292  -63.9056  -10.9865 H   0  0  0  0  0  0
  -25.0651  -65.0515  -12.3694 H   0  0  0  0  0  0
  -24.3271  -67.3998  -12.0588 H   0  0  0  0  0  0
  -23.8455  -67.9846  -10.4301 H   0  0  0  0  0  0
  -23.8157  -66.4040   -8.5068 H   0  0  0  0  0  0
  -24.3233  -64.6963   -8.7357 H   0  0  0  0  0  0
  -26.5822  -66.5346  -10.9717 H   0  0  0  0  0  0
  -16.6111  -59.9877  -14.0731 H   0  0  0  0  0  0
  -15.1076  -58.2913  -14.8228 H   0  0  0  0  0  0
  -15.2843  -57.8802  -13.0831 H   0  0  0  0  0  0
  -12.8616  -58.5569  -14.3815 H   0  0  0  0  0  0
  -13.1400  -58.5536  -12.6069 H   0  0  0  0  0  0
  -14.8055  -61.8998  -13.4487 H   0  0  0  0  0  0
  -14.6327  -61.0968  -15.0462 H   0  0  0  0  0  0
  1  2  2  0  0  0
  1  6  1  0  0  0
  1 32  1  0  0  0
  2  3  1  0  0  0
  2 13  1  0  0  0
  3  4  2  0  0  0
  3  8  1  0  0  0
  4  5  1  0  0  0
  5  6  2  0  0  0
  5  7  1  0  0  0
  7 27  1  0  0  0
  7 33  1  0  0  0
  8  9  1  0  0  0
  8 12  1  0  0  0
  8 34  1  0  0  0
  9 10  1  0  0  0
  9 35  1  0  0  0
  9 36  1  0  0  0
 10 11  1  0  0  0
 10 37  1  0  0  0
 10 38  1  0  0  0
 11 12  1  0  0  0
 11 39  1  0  0  0
 11 40  1  0  0  0
 12 41  1  0  0  0
 12 42  1  0  0  0
 13 14  2  0  0  0
 13 15  1  0  0  0
 15 16  1  0  0  0
 15 43  1  0  0  0
 16 17  1  0  0  0
 16 21  1  0  0  0
 16 44  1  0  0  0
 17 18  1  0  0  0
 17 25  1  0  0  0
 17 45  1  0  0  0
 18 19  1  0  0  0
 18 46  1  0  0  0
 18 47  1  0  0  0
 19 20  1  0  0  0
 19 24  1  0  0  0
 19 48  1  0  0  0
 20 21  1  0  0  0
 20 49  1  0  0  0
 20 50  1  0  0  0
 21 22  1  0  0  0
 21 51  1  0  0  0
 22 23  1  0  0  0
 22 52  1  0  0  0
 22 53  1  0  0  0
 23 24  1  0  0  0
 23 25  1  0  0  0
 23 26  1  0  0  0
 24 54  1  0  0  0
 24 55  1  0  0  0
 25 56  1  0  0  0
 25 57  1  0  0  0
 26 58  1  0  0  0
 27 28  1  0  0  0
 27 31  1  0  0  0
 27 59  1  0  0  0
 28 29  1  0  0  0
 28 60  1  0  0  0
 28 61  1  0  0  0
 29 30  1  0  0  0
 29 62  1  0  0  0
 29 63  1  0  0  0
 30 31  1  0  0  0
 31 64  1  0  0  0
 31 65  1  0  0  0
M  END
> <s_m_source_file>
../5alu_ligand.sdf

> <i_m_source_file_index>
1

> <s_epik_input>
W0NIMl0xW0NASF0oW0NIMl0yKVtDSDJdW0NASF0oW0NIMl0zKVtDQEhdKFtDQEBIXTFbQ0gyXVtDQEBdMjNbT0hdKVtOSF1DKD1PKWM0W2NIXW5jKFtOSF1bQ0BIXTVbQ0gyXVtDSDJdT1tDSDJdNSluYzRbQ0hdNltDSDJdW0NIMl1bQ0gyXVtDSDJdNg==

> <s_epik_cmdline>
J2VwaWtfYXBwJywgJy1pbWFlJywgJ2xpZ2FuZF9wcm8ubWFlJywgJy1vbWFlJywgJ2xpZ2FuZF9wcmVwLm1hZScsICctbXMnLCAnMScsICctcGgnLCAnNycsICctcGh0JywgJzAuNScsICctbnQn

> <r_lp_tautomer_probability>
1

> <r_epik_Ionization_Penalty>
  0.0001

> <r_epik_Ionization_Penalty_Charging>
  0.0000

> <r_epik_Ionization_Penalty_Neutral>
  0.0001

> <r_epik_State_Penalty>
 -0.0000

> <r_epik_Charging_Adjusted_Penalty>
0

> <i_epik_Tot_Q>
0

> <i_epik_Tot_abs_Q>
0

$$$$
