5alw_ligand
                    3D
 Schrodinger Suite 2020-3.
 36 38  0  0  1  0            999 V2000
  -22.5990   -4.8780   11.2980 C   0  0  0  0  0  0
  -21.8270   -5.9390   12.0290 C   0  0  0  0  0  0
  -22.4880   -7.0790   12.4790 C   0  0  0  0  0  0
  -21.7710   -8.0880   13.1190 C   0  0  0  0  0  0
  -20.3900   -7.9380   13.3180 C   0  0  0  0  0  0
  -19.7300   -6.7870   12.8630 C   0  0  0  0  0  0
  -20.4590   -5.7840   12.2280 C   0  0  0  0  0  0
  -19.4770   -9.2030   14.1370 S   0  0  0  0  0  0
  -19.4160  -10.5770   12.9600 C   0  0  0  0  0  0
  -18.9250  -10.0240   11.6430 C   0  0  0  0  0  0
  -19.7380   -9.6040   10.8480 O   0  0  0  0  0  0
  -17.4980   -9.9720   11.2880 C   0  0  0  0  0  0
  -16.4880  -10.1470   12.2600 C   0  0  0  0  0  0
  -15.1640  -10.0940   11.9020 C   0  0  0  0  0  0
  -14.8040   -9.8490   10.5600 C   0  0  0  0  0  0
  -15.8090   -9.6800    9.5910 C   0  0  0  0  0  0
  -17.1390   -9.7310    9.9430 C   0  0  0  0  0  0
  -15.1070   -9.4770    8.2690 C   0  0  0  0  0  0
  -13.6410   -9.6240    8.6250 C   0  0  0  0  0  0
  -12.7050   -9.5810    7.8530 O   0  0  0  0  0  0
  -13.5540   -9.8190    9.9520 N   0  0  0  0  0  0
  -23.6575   -5.1710   11.2373 H   0  0  0  0  0  0
  -22.1918   -4.7621   10.2828 H   0  0  0  0  0  0
  -22.5131   -3.9239   11.8387 H   0  0  0  0  0  0
  -23.5630   -7.1818   12.3311 H   0  0  0  0  0  0
  -22.2798   -8.9885   13.4630 H   0  0  0  0  0  0
  -18.6548   -6.6782   13.0052 H   0  0  0  0  0  0
  -19.9577   -4.8781   11.8872 H   0  0  0  0  0  0
  -18.7276  -11.3494   13.3335 H   0  0  0  0  0  0
  -20.4221  -11.0068   12.8456 H   0  0  0  0  0  0
  -16.7616  -10.3251   13.3000 H   0  0  0  0  0  0
  -14.3900  -10.2413   12.6552 H   0  0  0  0  0  0
  -17.9113   -9.5861    9.1876 H   0  0  0  0  0  0
  -15.4441  -10.2416    7.5537 H   0  0  0  0  0  0
  -15.3457   -8.4774    7.8768 H   0  0  0  0  0  0
  -12.6447   -9.9480   10.5574 H   0  0  0  0  0  0
  1  2  1  0  0  0
  1 22  1  0  0  0
  1 23  1  0  0  0
  1 24  1  0  0  0
  2  3  2  0  0  0
  2  7  1  0  0  0
  3  4  1  0  0  0
  3 25  1  0  0  0
  4  5  2  0  0  0
  4 26  1  0  0  0
  5  6  1  0  0  0
  5  8  1  0  0  0
  6  7  2  0  0  0
  6 27  1  0  0  0
  7 28  1  0  0  0
  8  9  1  0  0  0
  9 10  1  0  0  0
  9 29  1  0  0  0
  9 30  1  0  0  0
 10 11  2  0  0  0
 10 12  1  0  0  0
 12 13  2  0  0  0
 12 17  1  0  0  0
 13 14  1  0  0  0
 13 31  1  0  0  0
 14 15  2  0  0  0
 14 32  1  0  0  0
 15 16  1  0  0  0
 15 21  1  0  0  0
 16 17  2  0  0  0
 16 18  1  0  0  0
 17 33  1  0  0  0
 18 19  1  0  0  0
 18 34  1  0  0  0
 18 35  1  0  0  0
 19 20  2  0  0  0
 19 21  1  0  0  0
 21 36  1  0  0  0
M  END
> <s_m_source_file>
../5alw_ligand.sdf

> <i_m_source_file_index>
1

> <s_epik_input>
W0NIM11jMVtjSF1bY0hdYyhbY0hdW2NIXTEpU1tDSDJdQyg9TyljKFtjSF1bY0hdMilbY0hdYyhjMjMpW0NIMl1DKD1PKVtOSF0z

> <s_epik_cmdline>
J2VwaWtfYXBwJywgJy1pbWFlJywgJ2xpZ2FuZF9wcm8ubWFlJywgJy1vbWFlJywgJ2xpZ2FuZF9wcmVwLm1hZScsICctbXMnLCAnMScsICctcGgnLCAnNycsICctcGh0JywgJzAuNScsICctbnQn

> <r_lp_tautomer_probability>
1

> <r_epik_Ionization_Penalty>
  0.0000

> <r_epik_Ionization_Penalty_Charging>
  0.0000

> <r_epik_Ionization_Penalty_Neutral>
  0.0000

> <r_epik_State_Penalty>
 -0.0000

> <r_epik_Charging_Adjusted_Penalty>
0

> <i_epik_Tot_Q>
0

> <i_epik_Tot_abs_Q>
0

$$$$
