5alz_ligand
                    3D
 Schrodinger Suite 2020-3.
 53 56  0  0  1  0            999 V2000
  -12.5240   11.0880  -22.4160 C   0  0  0  0  0  0
  -12.0700   11.7530  -20.7900 S   0  0  0  0  0  0
  -11.0010   10.9930  -20.2310 O   0  0  0  0  0  0
  -11.9980   13.1750  -20.8370 O   0  0  0  0  0  0
  -13.4180   11.4290  -19.8580 N   0  0  3  0  0  0
  -14.5340   12.4020  -19.8040 C   0  0  0  0  0  0
  -14.9650   12.6420  -18.3520 C   0  0  0  0  0  0
  -15.2930   11.2880  -17.7040 C   0  0  0  0  0  0
  -14.0300   10.4070  -17.6710 C   0  0  0  0  0  0
  -13.5350   10.1530  -19.1120 C   0  0  0  0  0  0
  -15.8500   11.5020  -16.3610 N   0  0  0  0  0  0
  -16.6290   10.6060  -15.7170 C   0  0  0  0  0  0
  -16.8950    9.5640  -16.2830 O   0  0  0  0  0  0
  -17.1080   10.9120  -14.4700 N   0  0  0  0  0  0
  -17.9250   10.0860  -13.5400 C   0  0  0  0  0  0
  -16.9320    9.1440  -12.7860 C   0  0  0  0  0  0
  -17.6710    8.3060  -11.7060 C   0  0  1  0  0  0
  -18.3410    9.2540  -10.6700 C   0  0  0  0  0  0
  -19.3480   10.1800  -11.4020 C   0  0  1  0  0  0
  -18.6140   11.0180  -12.5010 C   0  0  0  0  0  0
  -20.4290    9.2920  -12.0730 C   0  0  0  0  0  0
  -19.7800    8.3570  -13.1290 C   0  0  2  0  0  0
  -18.7590    7.4410  -12.4010 C   0  0  0  0  0  0
  -19.0490    9.2290  -14.1950 C   0  0  0  0  0  0
  -11.6960   11.2487  -23.1221 H   0  0  0  0  0  0
  -13.4245   11.6017  -22.7838 H   0  0  0  0  0  0
  -12.7268   10.0105  -22.3278 H   0  0  0  0  0  0
  -14.2096   13.3567  -20.2436 H   0  0  0  0  0  0
  -15.3906   12.0093  -20.3715 H   0  0  0  0  0  0
  -14.1466   13.1302  -17.8025 H   0  0  0  0  0  0
  -15.8546   13.2888  -18.3357 H   0  0  0  0  0  0
  -16.0833   10.7629  -18.2604 H   0  0  0  0  0  0
  -13.2414   10.9180  -17.0992 H   0  0  0  0  0  0
  -14.2660    9.4455  -17.1916 H   0  0  0  0  0  0
  -14.2519    9.4938  -19.6233 H   0  0  0  0  0  0
  -12.5516    9.6619  -19.0689 H   0  0  0  0  0  0
  -15.6391   12.4366  -15.8206 H   0  0  0  0  0  0
  -16.8061   11.9296  -14.1811 H   0  0  0  0  0  0
  -16.4612    8.4570  -13.5045 H   0  0  0  0  0  0
  -16.1557    9.7481  -12.2937 H   0  0  0  0  0  0
  -16.9523    7.6565  -11.1848 H   0  0  0  0  0  0
  -18.8716    8.6555   -9.9149 H   0  0  0  0  0  0
  -17.5690    9.8640  -10.1782 H   0  0  0  0  0  0
  -19.8104   10.8637  -10.6748 H   0  0  0  0  0  0
  -17.8558   11.6507  -12.0165 H   0  0  0  0  0  0
  -19.3510   11.6550  -13.0118 H   0  0  0  0  0  0
  -20.9261    8.6781  -11.3075 H   0  0  0  0  0  0
  -21.1730    9.9322  -12.5696 H   0  0  0  0  0  0
  -20.5434    7.7403  -13.6259 H   0  0  0  0  0  0
  -18.2834    6.7739  -13.1350 H   0  0  0  0  0  0
  -19.2864    6.8392  -11.6463 H   0  0  0  0  0  0
  -19.7849    9.8926  -14.6726 H   0  0  0  0  0  0
  -18.6087    8.5642  -14.9528 H   0  0  0  0  0  0
  1  2  1  0  0  0
  1 25  1  0  0  0
  1 26  1  0  0  0
  1 27  1  0  0  0
  2  3  2  0  0  0
  2  4  2  0  0  0
  2  5  1  0  0  0
  5  6  1  0  0  0
  5 10  1  0  0  0
  6  7  1  0  0  0
  6 28  1  0  0  0
  6 29  1  0  0  0
  7  8  1  0  0  0
  7 30  1  0  0  0
  7 31  1  0  0  0
  8  9  1  0  0  0
  8 11  1  0  0  0
  8 32  1  0  0  0
  9 10  1  0  0  0
  9 33  1  0  0  0
  9 34  1  0  0  0
 10 35  1  0  0  0
 10 36  1  0  0  0
 11 12  1  0  0  0
 11 37  1  0  0  0
 12 13  2  0  0  0
 12 14  1  0  0  0
 14 15  1  0  0  0
 14 38  1  0  0  0
 15 16  1  0  0  0
 15 20  1  0  0  0
 15 24  1  0  0  0
 16 17  1  0  0  0
 16 39  1  0  0  0
 16 40  1  0  0  0
 17 18  1  0  0  0
 17 23  1  0  0  0
 17 41  1  0  0  0
 18 19  1  0  0  0
 18 42  1  0  0  0
 18 43  1  0  0  0
 19 20  1  0  0  0
 19 21  1  0  0  0
 19 44  1  0  0  0
 20 45  1  0  0  0
 20 46  1  0  0  0
 21 22  1  0  0  0
 21 47  1  0  0  0
 21 48  1  0  0  0
 22 23  1  0  0  0
 22 24  1  0  0  0
 22 49  1  0  0  0
 23 50  1  0  0  0
 23 51  1  0  0  0
 24 52  1  0  0  0
 24 53  1  0  0  0
M  END
> <s_m_source_file>
../5alz_ligand.sdf

> <i_m_source_file_index>
1

> <s_epik_input>
W0NIM11TKD1PKSg9TylOMVtDSDJdW0NIMl1bQ0hdKFtDSDJdW0NIMl0xKVtOSF1DKD1PKVtOSF1DMjNbQ0gyXVtDQEhdNFtDSDJdW0NAQEhdKFtDSDJdMilbQ0gyXVtDQEhdKFtDSDJdNClbQ0gyXTM=

> <s_epik_cmdline>
J2VwaWtfYXBwJywgJy1pbWFlJywgJ2xpZ2FuZF9wcm8ubWFlJywgJy1vbWFlJywgJ2xpZ2FuZF9wcmVwLm1hZScsICctbXMnLCAnMScsICctcGgnLCAnNycsICctcGh0JywgJzAuNScsICctbnQn

> <r_lp_tautomer_probability>
1

> <r_epik_Ionization_Penalty>
  0.0001

> <r_epik_Ionization_Penalty_Charging>
  0.0000

> <r_epik_Ionization_Penalty_Neutral>
  0.0001

> <r_epik_State_Penalty>
 -0.0000

> <r_epik_Charging_Adjusted_Penalty>
0

> <i_epik_Tot_Q>
0

> <i_epik_Tot_abs_Q>
0

$$$$
