5am1_ligand
                    3D
 Schrodinger Suite 2020-3.
 52 56  0  0  1  0            999 V2000
   20.6630    7.5970   12.7880 C   0  0  0  0  0  0
    9.2140   11.1500   21.7430 C   0  0  0  0  0  0
   19.3720    7.4140   13.2320 C   0  0  0  0  0  0
   21.1770    8.8700   12.6890 C   0  0  0  0  0  0
    9.1380   11.1310   20.3600 C   0  0  0  0  0  0
   10.4000   11.4930   22.3620 C   0  0  0  0  0  0
   18.6340    8.5300   13.5670 C   0  0  0  0  0  0
   20.4170    9.9690   13.0380 C   0  0  0  0  0  0
   10.2360   11.4400   19.5800 C   0  0  0  0  0  0
   11.4890   11.8200   21.5730 C   0  0  0  0  0  0
   19.1210    9.8180   13.4850 C   0  0  0  0  0  0
   11.4210   11.7970   20.1870 C   0  0  0  0  0  0
   12.7450   12.2180   22.2430 C   0  0  0  0  0  0
   16.2870   10.6750   16.8420 C   0  0  0  0  0  0
   13.8430   12.7400   21.3350 C   0  0  0  0  0  0
   14.6440   13.0640   19.0730 C   0  0  0  0  0  0
   14.4150   10.7090   19.9270 C   0  0  0  0  0  0
   16.9940   11.2940   13.2420 C   0  0  0  0  0  0
   14.8240   12.5280   17.6670 C   0  0  0  0  0  0
   14.5660   10.2000   18.4990 C   0  0  0  0  0  0
   18.3210   10.9870   13.8590 C   0  0  1  0  0  0
   17.0610   10.7660   14.6260 C   0  0  1  0  0  0
   13.8130   12.1230   19.9380 C   0  0  0  0  0  0
   15.2530   11.1400   17.6340 N   0  0  0  0  0  0
   16.7200   11.4690   15.7990 N   0  0  0  0  0  0
   12.8410   12.1320   23.4650 O   0  0  0  0  0  0
   16.8460    9.6090   17.0630 O   0  0  0  0  0  0
   12.4860   12.1180   19.3370 O   0  0  0  0  0  0
   21.2752    6.7371   12.5161 H   0  0  0  0  0  0
    8.3395   10.8948   22.3415 H   0  0  0  0  0  0
   18.9453    6.4145   13.3163 H   0  0  0  0  0  0
   22.1965    9.0125   12.3307 H   0  0  0  0  0  0
    8.1960   10.8678   19.8788 H   0  0  0  0  0  0
   10.4767   11.5059   23.4492 H   0  0  0  0  0  0
   17.6111    8.3865   13.9152 H   0  0  0  0  0  0
   20.8465   10.9677   12.9592 H   0  0  0  0  0  0
   10.1656   11.4017   18.4929 H   0  0  0  0  0  0
   13.7366   13.8287   21.2195 H   0  0  0  0  0  0
   14.8240   12.5124   21.7776 H   0  0  0  0  0  0
   15.6289   13.1880   19.5470 H   0  0  0  0  0  0
   14.1318   14.0366   19.0319 H   0  0  0  0  0  0
   13.7508   10.0352   20.4881 H   0  0  0  0  0  0
   15.4019   10.7387   20.4120 H   0  0  0  0  0  0
   16.9524   12.3598   12.9732 H   0  0  0  0  0  0
   16.8598   10.6823   12.3377 H   0  0  0  0  0  0
   13.8693   12.5936   17.1246 H   0  0  0  0  0  0
   15.5855   13.1236   17.1422 H   0  0  0  0  0  0
   15.1440    9.2641   18.5025 H   0  0  0  0  0  0
   13.5708   10.0146   18.0686 H   0  0  0  0  0  0
   19.2564   11.5539   13.9762 H   0  0  0  0  0  0
   16.5796    9.9456   15.1786 H   0  0  0  0  0  0
   16.8098   12.5649   15.8292 H   0  0  0  0  0  0
  1  3  2  0  0  0
  1  4  1  0  0  0
  1 29  1  0  0  0
  2  5  2  0  0  0
  2  6  1  0  0  0
  2 30  1  0  0  0
  3  7  1  0  0  0
  3 31  1  0  0  0
  4  8  2  0  0  0
  4 32  1  0  0  0
  5  9  1  0  0  0
  5 33  1  0  0  0
  6 10  2  0  0  0
  6 34  1  0  0  0
  7 11  2  0  0  0
  7 35  1  0  0  0
  8 11  1  0  0  0
  8 36  1  0  0  0
  9 12  2  0  0  0
  9 37  1  0  0  0
 10 12  1  0  0  0
 10 13  1  0  0  0
 11 21  1  0  0  0
 12 28  1  0  0  0
 13 15  1  0  0  0
 13 26  2  0  0  0
 14 24  1  0  0  0
 14 25  1  0  0  0
 14 27  2  0  0  0
 15 23  1  0  0  0
 15 38  1  0  0  0
 15 39  1  0  0  0
 16 19  1  0  0  0
 16 23  1  0  0  0
 16 40  1  0  0  0
 16 41  1  0  0  0
 17 20  1  0  0  0
 17 23  1  0  0  0
 17 42  1  0  0  0
 17 43  1  0  0  0
 18 21  1  0  0  0
 18 22  1  0  0  0
 18 44  1  0  0  0
 18 45  1  0  0  0
 19 24  1  0  0  0
 19 46  1  0  0  0
 19 47  1  0  0  0
 20 24  1  0  0  0
 20 48  1  0  0  0
 20 49  1  0  0  0
 21 22  1  0  0  0
 21 50  1  0  0  0
 22 25  1  0  0  0
 22 51  1  0  0  0
 23 28  1  0  0  0
 25 52  1  0  0  0
M  END
> <s_m_source_file>
../5am1_ligand.sdf

> <i_m_source_file_index>
1

> <s_epik_input>
W2NIXTFbY0hdW2NIXVtjSF1bY0hdYzFbQ0BIXTJbQ0gyXVtDQEBIXTJbTkhdQyg9TylOKFtDSDJdW0NIMl0zKVtDSDJdW0NIMl1DMzRbQ0gyXUMoPU8pYzVjKE80KVtjSF1bY0hdW2NIXVtjSF01

> <s_epik_cmdline>
J2VwaWtfYXBwJywgJy1pbWFlJywgJ2xpZ2FuZF9wcm8ubWFlJywgJy1vbWFlJywgJ2xpZ2FuZF9wcmVwLm1hZScsICctbXMnLCAnMScsICctcGgnLCAnNycsICctcGh0JywgJzAuNScsICctbnQn

> <r_lp_tautomer_probability>
1

> <r_epik_Ionization_Penalty>
  0.0001

> <r_epik_Ionization_Penalty_Charging>
  0.0000

> <r_epik_Ionization_Penalty_Neutral>
  0.0001

> <r_epik_State_Penalty>
 -0.0000

> <r_epik_Charging_Adjusted_Penalty>
0

> <i_epik_Tot_Q>
0

> <i_epik_Tot_abs_Q>
0

$$$$
