5am2_ligand
                    3D
 Schrodinger Suite 2020-3.
 21 22  0  0  1  0            999 V2000
  -19.8330   -5.3660   11.8120 C   0  0  0  0  0  0
  -18.5590   -4.9970   11.4310 C   0  0  0  0  0  0
  -17.9270   -7.2990   11.9860 C   0  0  0  0  0  0
  -20.1720   -6.6220   12.2740 C   0  0  0  0  0  0
  -19.2260   -7.6710   12.3810 C   0  0  0  0  0  0
  -17.5880   -5.9860   11.5070 C   0  0  0  0  0  0
  -21.5490   -6.8440   12.6410 C   0  0  0  0  0  0
  -21.9750   -8.0110   13.0910 C   0  0  0  0  0  0
  -19.7530   -8.9980   12.9010 C   0  0  0  0  0  0
  -16.2310   -5.6210   11.0980 C   0  0  0  0  0  0
  -21.0950   -9.0090   13.1980 N   0  0  0  0  0  0
  -19.1930  -10.0380   13.1070 O   0  0  0  0  0  0
  -20.6225   -4.6176   11.7438 H   0  0  0  0  0  0
  -18.3286   -3.9876   11.0902 H   0  0  0  0  0  0
  -17.1357   -8.0462   12.0464 H   0  0  0  0  0  0
  -22.2602   -6.0237   12.5441 H   0  0  0  0  0  0
  -23.0193   -8.1552   13.3680 H   0  0  0  0  0  0
  -16.2166   -4.5708   10.7710 H   0  0  0  0  0  0
  -15.9118   -6.2680   10.2677 H   0  0  0  0  0  0
  -15.5447   -5.7498   11.9480 H   0  0  0  0  0  0
  -21.4215   -9.9932   13.5649 H   0  0  0  0  0  0
  1  2  2  0  0  0
  1  4  1  0  0  0
  1 13  1  0  0  0
  2  6  1  0  0  0
  2 14  1  0  0  0
  3  5  1  0  0  0
  3  6  2  0  0  0
  3 15  1  0  0  0
  4  5  2  0  0  0
  4  7  1  0  0  0
  5  9  1  0  0  0
  6 10  1  0  0  0
  7  8  2  0  0  0
  7 16  1  0  0  0
  8 11  1  0  0  0
  8 17  1  0  0  0
  9 11  1  0  0  0
  9 12  2  0  0  0
 10 18  1  0  0  0
 10 19  1  0  0  0
 10 20  1  0  0  0
 11 21  1  0  0  0
M  END
> <s_m_source_file>
../5am2_ligand.sdf

> <i_m_source_file_index>
1

> <s_epik_input>
W2NIXTFbY0hdYyhbQ0gzXSlbY0hdYyhjMTIpYyg9TylbbkhdW2NIXVtjSF0y

> <s_epik_cmdline>
J2VwaWtfYXBwJywgJy1pbWFlJywgJ2xpZ2FuZF9wcm8ubWFlJywgJy1vbWFlJywgJ2xpZ2FuZF9wcmVwLm1hZScsICctbXMnLCAnMScsICctcGgnLCAnNycsICctcGh0JywgJzAuNScsICctbnQn

> <r_lp_tautomer_probability>
1

> <r_epik_Ionization_Penalty>
  0.0000

> <r_epik_Ionization_Penalty_Charging>
  0.0000

> <r_epik_Ionization_Penalty_Neutral>
  0.0000

> <r_epik_State_Penalty>
 -0.0000

> <r_epik_Charging_Adjusted_Penalty>
1.62700487513355e-05

> <i_epik_Tot_Q>
0

> <i_epik_Tot_abs_Q>
0

$$$$
