5am3_ligand
                    3D
 Schrodinger Suite 2020-3.
 61 65  0  0  1  0            999 V2000
   16.4150    9.7490    7.9100 C   0  0  0  0  0  0
   18.0460    8.0120    7.5270 C   0  0  0  0  0  0
   16.8580    9.8700    9.2120 C   0  0  0  0  0  0
   18.4820    8.1450    8.8310 C   0  0  0  0  0  0
   17.0110    8.8180    7.0830 C   0  0  0  0  0  0
   17.8880    9.0680    9.6740 C   0  0  0  0  0  0
   16.5140    8.7070    5.7010 C   0  0  0  0  0  0
   15.8700   10.8440   16.8470 C   0  0  0  0  0  0
   15.9970   10.2710   13.6170 C   0  0  0  0  0  0
   18.3090   11.1060   14.1090 C   0  0  0  0  0  0
   16.5620    9.3420   12.5580 C   0  0  0  0  0  0
   18.8420   10.2600   12.9650 C   0  0  0  0  0  0
   13.2280   10.0250   20.9470 C   0  0  0  0  0  0
   13.8060   12.3920   21.5130 C   0  0  0  0  0  0
   11.7760   11.9090   20.1420 C   0  0  0  0  0  0
   15.2240   11.1510   19.8800 C   0  0  0  0  0  0
   13.1690   10.6250   18.5230 C   0  0  0  0  0  0
   13.7800   13.0170   19.1000 C   0  0  0  0  0  0
   14.3800   11.0140   21.1620 C   0  0  2  0  0  0
   12.3270   10.5080   19.7980 C   0  0  1  0  0  0
   12.9270   12.9110   20.3730 C   0  0  2  0  0  0
   17.0320   10.5110   14.7020 C   0  0  1  0  0  0
   17.7780    9.9860   11.9010 C   0  0  1  0  0  0
   14.3370   11.6320   18.7100 C   0  0  0  0  0  0
   16.5020   11.3520   15.7420 N   0  0  0  0  0  0
   15.0630   11.7890   17.4560 N   0  0  0  0  0  0
   15.5440    9.3050    5.2560 O   0  0  0  0  0  0
   16.0280    9.6970   17.2380 O   0  0  0  0  0  0
   17.3010    7.8470    5.0140 O   0  5  0  0  0  0
   18.3950    9.0880   10.9710 O   0  0  0  0  0  0
   15.6063   10.3795    7.5403 H   0  0  0  0  0  0
   18.5085    7.2853    6.8591 H   0  0  0  0  0  0
   16.3958   10.5987    9.8780 H   0  0  0  0  0  0
   19.2969    7.5207    9.1974 H   0  0  0  0  0  0
   15.7269   11.2321   13.1552 H   0  0  0  0  0  0
   15.1018    9.8150   14.0650 H   0  0  0  0  0  0
   19.0661   11.1655   14.9047 H   0  0  0  0  0  0
   18.0824   12.1180   13.7421 H   0  0  0  0  0  0
   16.8616    8.3924   13.0254 H   0  0  0  0  0  0
   15.7954    9.1485   11.7932 H   0  0  0  0  0  0
   19.6802   10.7832   12.4817 H   0  0  0  0  0  0
   19.1901    9.2924   13.3557 H   0  0  0  0  0  0
   13.6366    9.0354   20.6947 H   0  0  0  0  0  0
   12.6313    9.9513   21.8681 H   0  0  0  0  0  0
   13.1982   12.3141   22.4265 H   0  0  0  0  0  0
   14.6304   13.1008   21.6804 H   0  0  0  0  0  0
   11.1523   12.2717   19.3117 H   0  0  0  0  0  0
   11.1692   11.8497   21.0576 H   0  0  0  0  0  0
   16.0289   11.8819   20.0473 H   0  0  0  0  0  0
   15.6623   10.1752   19.6235 H   0  0  0  0  0  0
   13.5915    9.6411   18.2711 H   0  0  0  0  0  0
   12.5344   10.9743   17.6952 H   0  0  0  0  0  0
   13.1614   13.3999   18.2750 H   0  0  0  0  0  0
   14.6203   13.7043   19.2778 H   0  0  0  0  0  0
   15.0105   10.6380   21.9812 H   0  0  0  0  0  0
   11.5042    9.7936   19.6475 H   0  0  0  0  0  0
   12.5205   13.9009   20.6277 H   0  0  0  0  0  0
   17.2606    9.5616   15.2084 H   0  0  0  0  0  0
   17.4512   10.8772   11.3451 H   0  0  0  0  0  0
   16.5969   12.4453   15.6671 H   0  0  0  0  0  0
   14.9972   12.7341   16.8970 H   0  0  0  0  0  0
  1  3  2  0  0  0
  1  5  1  0  0  0
  1 31  1  0  0  0
  2  4  1  0  0  0
  2  5  2  0  0  0
  2 32  1  0  0  0
  3  6  1  0  0  0
  3 33  1  0  0  0
  4  6  2  0  0  0
  4 34  1  0  0  0
  5  7  1  0  0  0
  6 30  1  0  0  0
  7 27  2  0  0  0
  7 29  1  0  0  0
  8 25  1  0  0  0
  8 26  1  0  0  0
  8 28  2  0  0  0
  9 11  1  0  0  0
  9 22  1  0  0  0
  9 35  1  0  0  0
  9 36  1  0  0  0
 10 12  1  0  0  0
 10 22  1  0  0  0
 10 37  1  0  0  0
 10 38  1  0  0  0
 11 23  1  0  0  0
 11 39  1  0  0  0
 11 40  1  0  0  0
 12 23  1  0  0  0
 12 41  1  0  0  0
 12 42  1  0  0  0
 13 19  1  0  0  0
 13 20  1  0  0  0
 13 43  1  0  0  0
 13 44  1  0  0  0
 14 19  1  0  0  0
 14 21  1  0  0  0
 14 45  1  0  0  0
 14 46  1  0  0  0
 15 20  1  0  0  0
 15 21  1  0  0  0
 15 47  1  0  0  0
 15 48  1  0  0  0
 16 19  1  0  0  0
 16 24  1  0  0  0
 16 49  1  0  0  0
 16 50  1  0  0  0
 17 20  1  0  0  0
 17 24  1  0  0  0
 17 51  1  0  0  0
 17 52  1  0  0  0
 18 21  1  0  0  0
 18 24  1  0  0  0
 18 53  1  0  0  0
 18 54  1  0  0  0
 19 55  1  0  0  0
 20 56  1  0  0  0
 21 57  1  0  0  0
 22 25  1  0  0  0
 22 58  1  0  0  0
 23 30  1  0  0  0
 23 59  1  0  0  0
 24 26  1  0  0  0
 25 60  1  0  0  0
 26 61  1  0  0  0
M  CHG  1  29  -1
M  END
> <s_m_source_file>
../5am3_ligand.sdf

> <i_m_source_file_index>
1

> <s_epik_input>
Tz1DKFtPSF0pYzFbY0hdW2NIXWMoW2NIXVtjSF0xKU9bQ0BIXShbQ0gyXVtDSDJdMilbQ0gyXVtDSDJdW0NAQEhdMltOSF1DKD1PKVtOSF1DMzRbQ0gyXVtDQEBIXTVbQ0gyXVtDQEhdKFtDSDJdMylbQ0gyXVtDQEBIXShbQ0gyXTUpW0NIMl00

> <s_epik_cmdline>
J2VwaWtfYXBwJywgJy1pbWFlJywgJ2xpZ2FuZF9wcm8ubWFlJywgJy1vbWFlJywgJ2xpZ2FuZF9wcmVwLm1hZScsICctbXMnLCAnMScsICctcGgnLCAnNycsICctcGh0JywgJzAuNScsICctbnQn

> <r_lp_tautomer_probability>
1

> <r_epik_Ionization_Penalty>
  0.0026

> <r_epik_Ionization_Penalty_Charging>
  0.0025

> <r_epik_Ionization_Penalty_Neutral>
  0.0001

> <r_epik_State_Penalty>
 -0.0000

> <r_epik_Charging_Adjusted_Penalty>
0.00248062909960697

> <i_epik_Tot_Q>
-1

> <i_epik_Tot_abs_Q>
1

$$$$
