5am4_ligand
                    3D
 Schrodinger Suite 2020-3.
 44 47  0  0  1  0            999 V2000
  -15.8710  -10.0500   12.1920 C   0  0  0  0  0  0
  -14.6540  -10.2950   11.5850 C   0  0  0  0  0  0
  -14.5280   -9.9860   10.2460 C   0  0  0  0  0  0
  -15.5550   -9.4490    9.5170 C   0  0  0  0  0  0
  -16.7720   -9.2120   10.1310 C   0  0  0  0  0  0
  -16.9280   -9.5100   11.4760 C   0  0  0  0  0  0
  -18.2230   -9.2640   12.1860 C   0  0  0  0  0  0
  -18.5250   -7.7740   12.2450 C   0  0  0  0  0  0
  -19.8700   -7.4550   12.8870 C   0  0  0  0  0  0
  -21.0070   -8.3060   12.3490 C   0  0  0  0  0  0
  -20.6640   -9.7890   12.3170 C   0  0  0  0  0  0
  -19.3680  -10.0500   11.5640 C   0  0  0  0  0  0
  -15.1240   -9.2320    8.0970 C   0  0  0  0  0  0
  -15.1910   -7.7640    7.6910 C   0  0  0  0  0  0
  -16.5900   -7.3610    7.2360 C   0  0  0  0  0  0
  -17.0760   -8.2590    6.2350 O   0  0  0  0  0  0
  -17.2380   -9.5860    6.7450 C   0  0  0  0  0  0
  -15.8720  -10.1500    7.1300 C   0  0  0  0  0  0
  -13.6680   -9.6800    8.1650 C   0  0  0  0  0  0
  -12.8570   -9.6500    7.2450 O   0  0  0  0  0  0
  -13.4020  -10.1500    9.4380 N   0  0  0  0  0  0
  -16.0016  -10.2846   13.2484 H   0  0  0  0  0  0
  -13.8207  -10.7185   12.1456 H   0  0  0  0  0  0
  -17.6021   -8.7940    9.5614 H   0  0  0  0  0  0
  -18.1002   -9.6341   13.2146 H   0  0  0  0  0  0
  -17.7481   -7.2655   12.8348 H   0  0  0  0  0  0
  -18.5394   -7.3621   11.2251 H   0  0  0  0  0  0
  -19.8092   -7.6293   13.9714 H   0  0  0  0  0  0
  -20.1256   -6.4018   12.6987 H   0  0  0  0  0  0
  -21.8941   -8.1783   12.9868 H   0  0  0  0  0  0
  -21.2456   -7.9924   11.3220 H   0  0  0  0  0  0
  -20.5478  -10.1607   13.3457 H   0  0  0  0  0  0
  -21.4728  -10.3417   11.8166 H   0  0  0  0  0  0
  -19.4960   -9.7435   10.5153 H   0  0  0  0  0  0
  -19.1403  -11.1253   11.6065 H   0  0  0  0  0  0
  -14.9135   -7.1334    8.5485 H   0  0  0  0  0  0
  -14.4934   -7.5811    6.8604 H   0  0  0  0  0  0
  -17.2758   -7.3832    8.0958 H   0  0  0  0  0  0
  -16.5606   -6.3445    6.8167 H   0  0  0  0  0  0
  -17.8889   -9.5612    7.6314 H   0  0  0  0  0  0
  -17.6944  -10.2225    5.9726 H   0  0  0  0  0  0
  -15.2807  -10.2742    6.2108 H   0  0  0  0  0  0
  -16.0267  -11.1316    7.6018 H   0  0  0  0  0  0
  -12.4876  -10.5988    9.8533 H   0  0  0  0  0  0
  1  2  2  0  0  0
  1  6  1  0  0  0
  1 22  1  0  0  0
  2  3  1  0  0  0
  2 23  1  0  0  0
  3  4  2  0  0  0
  3 21  1  0  0  0
  4  5  1  0  0  0
  4 13  1  0  0  0
  5  6  2  0  0  0
  5 24  1  0  0  0
  6  7  1  0  0  0
  7  8  1  0  0  0
  7 12  1  0  0  0
  7 25  1  0  0  0
  8  9  1  0  0  0
  8 26  1  0  0  0
  8 27  1  0  0  0
  9 10  1  0  0  0
  9 28  1  0  0  0
  9 29  1  0  0  0
 10 11  1  0  0  0
 10 30  1  0  0  0
 10 31  1  0  0  0
 11 12  1  0  0  0
 11 32  1  0  0  0
 11 33  1  0  0  0
 12 34  1  0  0  0
 12 35  1  0  0  0
 13 14  1  0  0  0
 13 18  1  0  0  0
 13 19  1  0  0  0
 14 15  1  0  0  0
 14 36  1  0  0  0
 14 37  1  0  0  0
 15 16  1  0  0  0
 15 38  1  0  0  0
 15 39  1  0  0  0
 16 17  1  0  0  0
 17 18  1  0  0  0
 17 40  1  0  0  0
 17 41  1  0  0  0
 18 42  1  0  0  0
 18 43  1  0  0  0
 19 20  2  0  0  0
 19 21  1  0  0  0
 21 44  1  0  0  0
M  END
> <s_m_source_file>
../5am4_ligand.sdf

> <i_m_source_file_index>
1

> <s_epik_input>
W0NIMl0xW0NIMl1bQ0gyXVtDSDJdW0NIMl1bQ0hdMWMoW2NIXTIpW2NIXVtjSF1jKFtOSF1DMz1PKWMyQzM0W0NIMl1bQ0gyXU9bQ0gyXVtDSDJdNA==

> <s_epik_cmdline>
J2VwaWtfYXBwJywgJy1pbWFlJywgJ2xpZ2FuZF9wcm8ubWFlJywgJy1vbWFlJywgJ2xpZ2FuZF9wcmVwLm1hZScsICctbXMnLCAnMScsICctcGgnLCAnNycsICctcGh0JywgJzAuNScsICctbnQn

> <r_lp_tautomer_probability>
1

> <r_epik_Ionization_Penalty>
  0.0000

> <r_epik_Ionization_Penalty_Charging>
  0.0000

> <r_epik_Ionization_Penalty_Neutral>
  0.0000

> <r_epik_State_Penalty>
 -0.0000

> <r_epik_Charging_Adjusted_Penalty>
0

> <i_epik_Tot_Q>
0

> <i_epik_Tot_abs_Q>
0

$$$$
