5am5_ligand
                    3D
 Schrodinger Suite 2020-3.
 37 38  0  0  1  0            999 V2000
   14.5680    6.4140    6.0000 C   0  0  0  0  0  0
   15.6800    6.9170    6.9350 C   0  0  0  0  0  0
   15.6630    8.4460    7.0770 C   0  0  0  0  0  0
   15.4130    8.8680    8.5120 C   0  0  0  0  0  0
   16.4000    8.7610    9.4890 C   0  0  0  0  0  0
   16.1510    9.1830   10.8280 C   0  0  0  0  0  0
   14.9180    9.6940   11.1190 C   0  0  0  0  0  0
   13.9450    9.7950   10.1650 N   0  0  0  0  0  0
   14.1500    9.4040    8.8810 C   0  0  0  0  0  0
   13.2440    9.5280    8.0580 O   0  0  0  0  0  0
   17.1790    9.0980   11.9520 C   0  0  0  0  0  0
   18.2970    8.0450   11.7060 C   0  0  0  0  0  0
   19.5060    8.1270   12.6710 C   0  0  0  0  0  0
   19.9710    9.5790   12.9170 C   0  0  0  0  0  0
   18.7950   10.4380   13.4090 C   0  0  0  0  0  0
   17.7330   10.4990   12.2950 C   0  0  0  0  0  0
   14.6177    5.3175    5.9279 H   0  0  0  0  0  0
   14.7025    6.8536    5.0007 H   0  0  0  0  0  0
   13.5883    6.7110    6.4025 H   0  0  0  0  0  0
   15.5455    6.4774    7.9343 H   0  0  0  0  0  0
   16.6597    6.6200    6.5326 H   0  0  0  0  0  0
   16.6331    8.8547    6.7579 H   0  0  0  0  0  0
   14.8640    8.8639    6.4470 H   0  0  0  0  0  0
   17.3747    8.3496    9.2267 H   0  0  0  0  0  0
   14.7057   10.0285   12.1345 H   0  0  0  0  0  0
   12.9580   10.2037   10.4272 H   0  0  0  0  0  0
   16.6287    8.7280   12.8296 H   0  0  0  0  0  0
   17.8784    7.0336   11.8147 H   0  0  0  0  0  0
   18.6994    8.1680   10.6897 H   0  0  0  0  0  0
   19.2298    7.6913   13.6426 H   0  0  0  0  0  0
   20.3529    7.5683   12.2461 H   0  0  0  0  0  0
   20.7647    9.5858   13.6786 H   0  0  0  0  0  0
   20.3590   10.0036   11.9794 H   0  0  0  0  0  0
   18.3636    9.9852   14.3139 H   0  0  0  0  0  0
   19.1534   11.4517   13.6414 H   0  0  0  0  0  0
   18.1968   10.9391   11.3999 H   0  0  0  0  0  0
   16.9108   11.1448   12.6371 H   0  0  0  0  0  0
  1  2  1  0  0  0
  1 17  1  0  0  0
  1 18  1  0  0  0
  1 19  1  0  0  0
  2  3  1  0  0  0
  2 20  1  0  0  0
  2 21  1  0  0  0
  3  4  1  0  0  0
  3 22  1  0  0  0
  3 23  1  0  0  0
  4  5  2  0  0  0
  4  9  1  0  0  0
  5  6  1  0  0  0
  5 24  1  0  0  0
  6  7  2  0  0  0
  6 11  1  0  0  0
  7  8  1  0  0  0
  7 25  1  0  0  0
  8  9  1  0  0  0
  8 26  1  0  0  0
  9 10  2  0  0  0
 11 12  1  0  0  0
 11 16  1  0  0  0
 11 27  1  0  0  0
 12 13  1  0  0  0
 12 28  1  0  0  0
 12 29  1  0  0  0
 13 14  1  0  0  0
 13 30  1  0  0  0
 13 31  1  0  0  0
 14 15  1  0  0  0
 14 32  1  0  0  0
 14 33  1  0  0  0
 15 16  1  0  0  0
 15 34  1  0  0  0
 15 35  1  0  0  0
 16 36  1  0  0  0
 16 37  1  0  0  0
M  END
> <s_m_source_file>
../5am5_ligand.sdf

> <i_m_source_file_index>
1

> <s_epik_input>
W0NIM11bQ0gyXVtDSDJdYzFbY0hdYyhbY0hdW25IXWMxPU8pW0NIXTJbQ0gyXVtDSDJdW0NIMl1bQ0gyXVtDSDJdMg==

> <s_epik_cmdline>
J2VwaWtfYXBwJywgJy1pbWFlJywgJ2xpZ2FuZF9wcm8ubWFlJywgJy1vbWFlJywgJ2xpZ2FuZF9wcmVwLm1hZScsICctbXMnLCAnMScsICctcGgnLCAnNycsICctcGh0JywgJzAuNScsICctbnQn

> <r_lp_tautomer_probability>
1

> <r_epik_Ionization_Penalty>
  0.0000

> <r_epik_Ionization_Penalty_Charging>
  0.0000

> <r_epik_Ionization_Penalty_Neutral>
  0.0000

> <r_epik_State_Penalty>
 -0.0000

> <r_epik_Charging_Adjusted_Penalty>
1.22597879915648e-05

> <i_epik_Tot_Q>
0

> <i_epik_Tot_abs_Q>
0

$$$$
