5amg_ligand
                    3D
 Schrodinger Suite 2020-3.
 39 39  0  0  1  0            999 V2000
   -7.3700    1.3400   16.8430 O   0  0  0  0  0  0
   -5.9870    1.0240   16.5680 S   0  0  0  0  0  0
   -5.1090    1.3840   17.6380 O   0  0  0  0  0  0
   -5.7910   -0.5430   16.4470 N   0  0  0  0  0  0
   -5.4810    1.7990   15.1870 C   0  0  0  0  0  0
   -4.7720    1.1350   14.1540 C   0  0  0  0  0  0
   -4.3500    1.7960   12.9910 C   0  0  0  0  0  0
   -4.6250    3.1460   12.8210 C   0  0  0  0  0  0
   -4.2130    3.7870   11.5530 C   0  0  0  0  0  0
   -4.8070    3.4890   10.5540 O   0  0  0  0  0  0
   -3.2720    4.7000   11.5270 O   0  5  0  0  0  0
   -5.8010    3.1610   15.0110 C   0  0  0  0  0  0
   -5.4060    3.8630   13.8590 C   0  0  0  0  0  0
   -5.7460    5.4430   13.7160 S   0  0  0  0  0  0
   -6.4930    5.8670   12.5710 O   0  0  0  0  0  0
   -6.1440    5.9890   14.9510 O   0  0  0  0  0  0
   -4.3680    6.2280   13.4460 N   0  0  3  0  0  0
   -3.3230    6.2750   14.4680 C   0  0  0  0  0  0
   -2.1110    7.0870   14.0000 C   0  0  0  0  0  0
   -1.9600    8.3750   14.7620 C   0  0  0  0  0  0
   -0.8070    9.2180   14.2070 C   0  0  0  0  0  0
   -1.2430   10.4100   13.3730 C   0  0  0  0  0  0
   -6.1335   -1.0279   17.3730 H   0  0  0  0  0  0
   -4.7262   -0.7681   16.2874 H   0  0  0  0  0  0
   -4.5472    0.0745   14.2676 H   0  0  0  0  0  0
   -3.8060    1.2495   12.2206 H   0  0  0  0  0  0
   -6.3666    3.6804   15.7846 H   0  0  0  0  0  0
   -4.2911    6.8630   12.5511 H   0  0  0  0  0  0
   -3.7227    6.7428   15.3798 H   0  0  0  0  0  0
   -2.9879    5.2526   14.6971 H   0  0  0  0  0  0
   -1.1951    6.4953   14.1451 H   0  0  0  0  0  0
   -2.2238    7.3326   12.9337 H   0  0  0  0  0  0
   -2.8893    8.9584   14.6838 H   0  0  0  0  0  0
   -1.7541    8.1534   15.8196 H   0  0  0  0  0  0
   -0.2073    9.6129   15.0403 H   0  0  0  0  0  0
   -0.1721    8.5920   13.5628 H   0  0  0  0  0  0
   -0.3550   10.9538   13.0184 H   0  0  0  0  0  0
   -1.8625   11.0802   13.9871 H   0  0  0  0  0  0
   -1.8273   10.0593   12.5095 H   0  0  0  0  0  0
  1  2  2  0  0  0
  2  3  2  0  0  0
  2  4  1  0  0  0
  2  5  1  0  0  0
  4 23  1  0  0  0
  4 24  1  0  0  0
  5  6  2  0  0  0
  5 12  1  0  0  0
  6  7  1  0  0  0
  6 25  1  0  0  0
  7  8  2  0  0  0
  7 26  1  0  0  0
  8  9  1  0  0  0
  8 13  1  0  0  0
  9 10  2  0  0  0
  9 11  1  0  0  0
 12 13  2  0  0  0
 12 27  1  0  0  0
 13 14  1  0  0  0
 14 15  2  0  0  0
 14 16  2  0  0  0
 14 17  1  0  0  0
 17 18  1  0  0  0
 17 28  1  0  0  0
 18 19  1  0  0  0
 18 29  1  0  0  0
 18 30  1  0  0  0
 19 20  1  0  0  0
 19 31  1  0  0  0
 19 32  1  0  0  0
 20 21  1  0  0  0
 20 33  1  0  0  0
 20 34  1  0  0  0
 21 22  1  0  0  0
 21 35  1  0  0  0
 21 36  1  0  0  0
 22 37  1  0  0  0
 22 38  1  0  0  0
 22 39  1  0  0  0
M  CHG  1  11  -1
M  END
> <s_m_source_file>
../5amg_ligand.sdf

> <i_m_source_file_index>
1

> <s_epik_input>
Tz1TKD1PKShbTkgyXSljMVtjSF1bY0hdYyhDKD1PKVtPSF0pYyhbY0hdMSlTKD1PKSg9TylbTkhdW0NIMl1bQ0gyXVtDSDJdW0NIMl1bQ0gzXQ==

> <s_epik_cmdline>
J2VwaWtfYXBwJywgJy1pbWFlJywgJ2xpZ2FuZF9wcm8ubWFlJywgJy1vbWFlJywgJ2xpZ2FuZF9wcmVwLm1hZScsICctbXMnLCAnMScsICctcGgnLCAnNycsICctcGh0JywgJzAuNScsICctbnQn

> <r_lp_tautomer_probability>
1

> <r_epik_Ionization_Penalty>
  0.0016

> <r_epik_Ionization_Penalty_Charging>
  0.0000

> <r_epik_Ionization_Penalty_Neutral>
  0.0016

> <r_epik_State_Penalty>
 -0.0000

> <r_epik_Charging_Adjusted_Penalty>
2.58152410804935e-05

> <i_epik_Tot_Q>
-1

> <i_epik_Tot_abs_Q>
1

$$$$
