5aml_ligand
                    3D
 Schrodinger Suite 2020-3.
 32 32  0  0  1  0            999 V2000
   -6.2510    5.9320   14.9740 O   0  0  0  0  0  0
   -5.6280    5.5060   13.7570 S   0  0  0  0  0  0
   -6.3120    5.7830   12.5660 O   0  0  0  0  0  0
   -4.2310    6.3380   13.6400 N   0  0  3  0  0  0
   -3.3990    6.3880   14.8350 C   0  0  0  0  0  0
   -2.4740    7.5090   14.7990 C   0  0  0  0  0  0
   -1.7400    8.4230   14.7690 C   0  0  0  0  0  0
   -0.8400    9.5600   14.7250 C   0  0  0  0  0  0
   -5.2670    3.8860   13.8640 C   0  0  0  0  0  0
   -4.5170    3.1520   12.8300 C   0  0  0  0  0  0
   -4.3040    1.8020   13.0520 C   0  0  0  0  0  0
   -4.1150    3.7680   11.5380 C   0  0  0  0  0  0
   -4.5970    3.3040   10.4770 O   0  5  0  0  0  0
   -3.3490    4.7410   11.5530 O   0  0  0  0  0  0
   -5.6790    3.1550   15.0090 C   0  0  0  0  0  0
   -5.3640    1.7980   15.2430 C   0  0  0  0  0  0
   -4.6860    1.1370   14.1970 C   0  0  0  0  0  0
   -5.9180    0.9820   16.6330 S   0  0  0  0  0  0
   -7.3430    1.3090   16.7330 O   0  0  0  0  0  0
   -5.0780    1.3780   17.7110 O   0  0  0  0  0  0
   -5.7290   -0.5660   16.4200 N   0  0  0  0  0  0
   -3.9922    6.9762   12.7765 H   0  0  0  0  0  0
   -4.0390    6.4954   15.7231 H   0  0  0  0  0  0
   -2.8148    5.4593   14.9142 H   0  0  0  0  0  0
    0.0724    9.3276   15.2938 H   0  0  0  0  0  0
   -1.3350   10.4368   15.1680 H   0  0  0  0  0  0
   -0.5751    9.7777   13.6798 H   0  0  0  0  0  0
   -3.8026    1.2291   12.2720 H   0  0  0  0  0  0
   -6.2778    3.6750   15.7568 H   0  0  0  0  0  0
   -4.4591    0.0756   14.2969 H   0  0  0  0  0  0
   -6.0833   -1.1047   17.3113 H   0  0  0  0  0  0
   -4.6636   -0.7864   16.2577 H   0  0  0  0  0  0
  1  2  2  0  0  0
  2  3  2  0  0  0
  2  4  1  0  0  0
  2  9  1  0  0  0
  4  5  1  0  0  0
  4 22  1  0  0  0
  5  6  1  0  0  0
  5 23  1  0  0  0
  5 24  1  0  0  0
  6  7  3  0  0  0
  7  8  1  0  0  0
  8 25  1  0  0  0
  8 26  1  0  0  0
  8 27  1  0  0  0
  9 10  2  0  0  0
  9 15  1  0  0  0
 10 11  1  0  0  0
 10 12  1  0  0  0
 11 17  2  0  0  0
 11 28  1  0  0  0
 12 13  1  0  0  0
 12 14  2  0  0  0
 15 16  2  0  0  0
 15 29  1  0  0  0
 16 17  1  0  0  0
 16 18  1  0  0  0
 17 30  1  0  0  0
 18 19  2  0  0  0
 18 20  2  0  0  0
 18 21  1  0  0  0
 21 31  1  0  0  0
 21 32  1  0  0  0
M  CHG  1  13  -1
M  END
> <s_m_source_file>
../5aml_ligand.sdf

> <i_m_source_file_index>
1

> <s_epik_input>
W0NIM11DI0NbQ0gyXVtOSF1TKD1PKSg9TyljMWMoQyg9TylbT0hdKVtjSF1bY0hdYyhbY0hdMSlTKD1PKSg9TylbTkgyXQ==

> <s_epik_cmdline>
J2VwaWtfYXBwJywgJy1pbWFlJywgJ2xpZ2FuZF9wcm8ubWFlJywgJy1vbWFlJywgJ2xpZ2FuZF9wcmVwLm1hZScsICctbXMnLCAnMScsICctcGgnLCAnNycsICctcGh0JywgJzAuNScsICctbnQn

> <r_lp_tautomer_probability>
1

> <r_epik_Ionization_Penalty>
  0.0023

> <r_epik_Ionization_Penalty_Charging>
  0.0000

> <r_epik_Ionization_Penalty_Neutral>
  0.0023

> <r_epik_State_Penalty>
 -0.0000

> <r_epik_Charging_Adjusted_Penalty>
2.33481549400389e-05

> <i_epik_Tot_Q>
-1

> <i_epik_Tot_abs_Q>
1

$$$$
