5aoi_ligand
                    3D
 Schrodinger Suite 2020-3.
 33 34  0  0  1  0            999 V2000
  122.2150  103.4990  -46.6050 N   0  0  0  0  0  0
  123.5600  103.4620  -44.7920 C   0  0  0  0  0  0
  123.0980  102.6770  -45.8760 C   0  0  0  0  0  0
  122.9500  104.7840  -44.8850 C   0  0  0  0  0  0
  122.1150  104.7670  -46.0210 C   0  0  0  0  0  0
  123.4910  101.3380  -46.0930 C   0  0  0  0  0  0
  124.4540  102.8920  -43.8870 C   0  0  0  0  0  0
  124.3940  100.8080  -45.1610 C   0  0  0  0  0  0
  124.8640  101.5730  -44.0780 C   0  0  3  0  0  0
  126.1170  100.8050  -42.8000 Br  0  0  0  0  0  0
  123.1590  105.9500  -43.9160 C   0  0  0  0  0  0
  121.2670  105.9140  -46.5270 C   0  0  0  0  0  0
  124.5580  107.8050  -43.2790 N   0  3  0  0  0  0
  122.9810  100.5110  -47.2640 C   0  0  0  0  0  0
  124.3040  106.8460  -44.3500 C   0  0  0  0  0  0
  124.0780   99.5790  -47.7380 C   0  0  0  0  0  0
  124.8263  103.4816  -43.0362 H   0  0  0  0  0  0
  124.7503   99.7728  -45.2677 H   0  0  0  0  0  0
  122.2433  106.5578  -43.8708 H   0  0  0  0  0  0
  123.3885  105.5577  -42.9143 H   0  0  0  0  0  0
  120.7263  105.5990  -47.4317 H   0  0  0  0  0  0
  121.9141  106.7707  -46.7662 H   0  0  0  0  0  0
  120.5442  106.2059  -45.7508 H   0  0  0  0  0  0
  125.3861  108.4682  -43.5695 H   0  0  0  0  0  0
  124.8263  107.2648  -42.3591 H   0  0  0  0  0  0
  123.6530  108.4045  -43.1014 H   0  0  0  0  0  0
  122.1101   99.9202  -46.9439 H   0  0  0  0  0  0
  122.6877  101.1808  -48.0858 H   0  0  0  0  0  0
  125.1998  106.2340  -44.5320 H   0  0  0  0  0  0
  124.0265  107.3738  -45.2743 H   0  0  0  0  0  0
  123.7103   98.9806  -48.5846 H   0  0  0  0  0  0
  124.3711   98.9097  -46.9158 H   0  0  0  0  0  0
  124.9488  100.1703  -48.0576 H   0  0  0  0  0  0
  1  3  2  0  0  0
  1  5  1  0  0  0
  2  3  1  0  0  0
  2  4  1  0  0  0
  2  7  2  0  0  0
  3  6  1  0  0  0
  4  5  2  0  0  0
  4 11  1  0  0  0
  5 12  1  0  0  0
  6  8  2  0  0  0
  6 14  1  0  0  0
  7  9  1  0  0  0
  7 17  1  0  0  0
  8  9  1  0  0  0
  8 18  1  0  0  0
  9 10  1  0  0  0
 11 15  1  0  0  0
 11 19  1  0  0  0
 11 20  1  0  0  0
 12 21  1  0  0  0
 12 22  1  0  0  0
 12 23  1  0  0  0
 13 15  1  0  0  0
 13 24  1  0  0  0
 13 25  1  0  0  0
 13 26  1  0  0  0
 14 16  1  0  0  0
 14 27  1  0  0  0
 14 28  1  0  0  0
 15 29  1  0  0  0
 15 30  1  0  0  0
 16 31  1  0  0  0
 16 32  1  0  0  0
 16 33  1  0  0  0
M  CHG  1  13   1
M  END
> <s_m_source_file>
../5aoi_ligand.sdf

> <i_m_source_file_index>
1

> <s_epik_input>
W05IMytdW0NIMl1bQ0gyXUMxPUMoW0NIM10pTj1DKEMxPTIpQyhbQ0gyXVtDSDNdKT1bQ0hdW0NIXShCcilbQ0hdMg==

> <s_epik_cmdline>
J2VwaWtfYXBwJywgJy1pbWFlJywgJ2xpZ2FuZF9wcm8ubWFlJywgJy1vbWFlJywgJ2xpZ2FuZF9wcmVwLm1hZScsICctbXMnLCAnMScsICctcGgnLCAnNycsICctcGh0JywgJzAuNScsICctbnQn

> <r_epik_Ionization_Penalty>
  0.0880

> <r_epik_Ionization_Penalty_Charging>
  0.0880

> <r_epik_Ionization_Penalty_Neutral>
  0.0000

> <r_epik_State_Penalty>
  0.0785

> <r_epik_Charging_Adjusted_Penalty>
0.166497202976149

> <i_epik_Tot_Q>
1

> <i_epik_Tot_abs_Q>
1

> <s_epik_Chemistry_Notes>
This compound has an imine and may undergo hydrolysis.

$$$$
