5aoj_ligand
                    3D
 Schrodinger Suite 2020-3.
 23 24  0  0  1  0            999 V2000
   90.9370   95.4720  -44.7510 C   0  0  0  0  0  0
   92.4310   94.3090  -40.8100 I   0  0  0  0  0  0
   92.5010   91.9530  -42.9970 N   0  0  0  0  0  0
   90.2040   97.7230  -44.6300 O   0  0  0  0  0  0
   91.0430   94.3050  -45.5300 C   0  0  0  0  0  0
   91.5860   91.4910  -46.4040 I   0  0  0  0  0  0
   91.2350   96.5930  -42.6750 O   0  0  0  0  0  0
   91.5490   93.1040  -45.0100 C   0  0  0  0  0  0
   90.1910   96.6550  -46.6390 O   0  5  0  0  0  0
   91.9550   93.0810  -43.6520 C   0  0  0  0  0  0
   91.8570   94.2580  -42.8690 C   0  0  0  0  0  0
   91.3450   95.4450  -43.4190 C   0  0  0  0  0  0
   93.8520   91.7770  -42.7550 C   0  0  0  0  0  0
   94.0310   90.5990  -42.0640 C   0  0  0  0  0  0
   92.7490   90.0330  -41.8770 C   0  0  0  0  0  0
   91.8270   90.8810  -42.4540 C   0  0  0  0  0  0
   90.3940   96.7170  -45.3840 C   0  0  0  0  0  0
   90.7216   94.3349  -46.5711 H   0  0  0  0  0  0
   90.8303   97.5080  -43.1321 H   0  0  0  0  0  0
   94.6451   92.4592  -43.0612 H   0  0  0  0  0  0
   94.9799   90.1826  -41.7259 H   0  0  0  0  0  0
   92.5288   89.0946  -41.3680 H   0  0  0  0  0  0
   90.7479   90.7289  -42.4766 H   0  0  0  0  0  0
  1  5  2  0  0  0
  1 12  1  0  0  0
  1 17  1  0  0  0
  2 11  1  0  0  0
  3 10  1  0  0  0
  3 13  1  0  0  0
  3 16  1  0  0  0
  4 17  2  0  0  0
  5  8  1  0  0  0
  5 18  1  0  0  0
  6  8  1  0  0  0
  7 12  1  0  0  0
  7 19  1  0  0  0
  8 10  2  0  0  0
  9 17  1  0  0  0
 10 11  1  0  0  0
 11 12  2  0  0  0
 13 14  2  0  0  0
 13 20  1  0  0  0
 14 15  1  0  0  0
 14 21  1  0  0  0
 15 16  2  0  0  0
 15 22  1  0  0  0
 16 23  1  0  0  0
M  CHG  1   9  -1
M  END
> <s_m_source_file>
../5aoj_ligand.sdf

> <i_m_source_file_index>
1

> <s_epik_input>
Tz1DKFtPSF0pYzFbY0hdYyhJKWMoYyhJKWMxW09IXSktbjJbY0hdW2NIXVtjSF1bY0hdMg==

> <s_epik_cmdline>
J2VwaWtfYXBwJywgJy1pbWFlJywgJ2xpZ2FuZF9wcm8ubWFlJywgJy1vbWFlJywgJ2xpZ2FuZF9wcmVwLm1hZScsICctbXMnLCAnMScsICctcGgnLCAnNycsICctcGh0JywgJzAuNScsICctbnQn

> <r_lp_tautomer_probability>
1

> <r_epik_Ionization_Penalty>
  0.0008

> <r_epik_Ionization_Penalty_Charging>
  0.0000

> <r_epik_Ionization_Penalty_Neutral>
  0.0008

> <r_epik_State_Penalty>
 -0.0000

> <r_epik_Charging_Adjusted_Penalty>
4.06608479958256e-06

> <i_epik_Tot_Q>
-1

> <i_epik_Tot_abs_Q>
1

$$$$
