5aok_ligand
                    3D
 Schrodinger Suite 2020-3.
 29 32  0  0  1  0            999 V2000
   90.8210   91.7720  -46.6050 C   0  0  0  0  0  0
   90.6120   92.9920  -46.1420 N   0  0  0  0  0  0
   91.1420   93.0560  -44.8530 C   0  0  0  0  0  0
   91.6820   91.8080  -44.5500 C   0  0  0  0  0  0
   91.4960   90.9620  -45.6680 O   0  0  0  0  0  0
   91.0910   94.2040  -44.0170 C   0  0  0  0  0  0
   92.3290   91.2690  -43.4680 N   0  0  0  0  0  0
   90.4880   91.1540  -47.8820 C   0  0  0  0  0  0
   93.6000   91.6340  -43.0180 C   0  0  0  0  0  0
   93.8840   90.8440  -41.9040 C   0  0  0  0  0  0
   92.7620   89.9740  -41.6700 C   0  0  0  0  0  0
   91.8100   90.2570  -42.6440 C   0  0  0  0  0  0
   91.2050   94.2020  -42.6300 N   0  0  0  0  0  0
   91.0880   95.4450  -42.2910 N   0  3  0  0  0  0
   90.8990   96.2110  -43.3560 N   0  0  0  0  0  0
   90.8820   95.5150  -44.4460 N   0  3  0  0  0  0
   91.4160   90.1200  -48.4670 C   0  0  0  0  0  0
   90.0810   89.7030  -47.9240 C   0  0  0  0  0  0
   90.0518   92.1077  -48.2140 H   0  0  0  0  0  0
   94.2481   92.3935  -43.4552 H   0  0  0  0  0  0
   94.7988   90.8796  -41.3124 H   0  0  0  0  0  0
   92.6743   89.2313  -40.8770 H   0  0  0  0  0  0
   90.8360   89.7791  -42.7489 H   0  0  0  0  0  0
   91.6218   90.3655  -49.5193 H   0  0  0  0  0  0
   92.3593   90.1118  -47.9012 H   0  0  0  0  0  0
   89.8991   89.3435  -46.9005 H   0  0  0  0  0  0
   89.1616   89.5971  -48.5186 H   0  0  0  0  0  0
   91.1450   95.7081  -41.3279 H   0  0  0  0  0  0
   90.7244   96.0129  -45.4141 H   0  0  0  0  0  0
  1  2  2  0  0  0
  1  5  1  0  0  0
  1  8  1  0  0  0
  2  3  1  0  0  0
  3  4  2  0  0  0
  3  6  1  0  0  0
  4  5  1  0  0  0
  4  7  1  0  0  0
  6 13  2  0  0  0
  6 16  1  0  0  0
  7  9  1  0  0  0
  7 12  1  0  0  0
  8 17  1  0  0  0
  8 18  1  0  0  0
  8 19  1  0  0  0
  9 10  2  0  0  0
  9 20  1  0  0  0
 10 11  1  0  0  0
 10 21  1  0  0  0
 11 12  2  0  0  0
 11 22  1  0  0  0
 12 23  1  0  0  0
 13 14  1  0  0  0
 14 15  1  0  0  0
 14 28  1  0  0  0
 15 16  2  0  0  0
 16 29  1  0  0  0
 17 18  1  0  0  0
 17 24  1  0  0  0
 17 25  1  0  0  0
 18 26  1  0  0  0
 18 27  1  0  0  0
M  CHG  2  14   1  16   1
M  END
> <s_m_source_file>
../5aok_ligand.sdf

> <i_m_source_file_index>
1

> <s_epik_input>
bjFuW25IXW5jMS1jKG5jMltDSF0zW0NIMl1bQ0gyXTMpYyhvMiktbjRbY0hdW2NIXVtjSF1bY0hdNA==

> <s_epik_cmdline>
J2VwaWtfYXBwJywgJy1pbWFlJywgJ2xpZ2FuZF9wcm8ubWFlJywgJy1vbWFlJywgJ2xpZ2FuZF9wcmVwLm1hZScsICctbXMnLCAnMScsICctcGgnLCAnNycsICctcGh0JywgJzAuNScsICctbnQn

> <r_epik_Ionization_Penalty>
 13.1119

> <r_epik_Ionization_Penalty_Charging>
 13.1118

> <r_epik_Ionization_Penalty_Neutral>
  0.0001

> <r_epik_State_Penalty>
  0.0112

> <r_epik_Charging_Adjusted_Penalty>
13.1230215375068

> <i_epik_Tot_Q>
2

> <i_epik_Tot_abs_Q>
2

> <s_epik_Chemistry_Notes>
This compound has an imine and may undergo hydrolysis.

$$$$
