5aom_ligand
                    3D
 Schrodinger Suite 2020-3.
 33 34  0  0  1  0            999 V2000
   91.9560   91.8700  -45.3150 Cl  0  0  0  0  0  0
   91.5440   97.2050  -43.8860 C   0  0  0  0  0  0
   91.6880   96.3790  -42.7920 N   0  0  0  0  0  0
   91.3770   96.8330  -45.0460 O   0  0  0  0  0  0
   91.8510   94.9790  -42.8300 C   0  0  0  0  0  0
   91.2040  101.4610  -44.3570 N   0  3  0  0  0  0
   92.0940   95.1860  -40.4780 O   0  0  0  0  0  0
   91.8250   94.1930  -43.9890 C   0  0  0  0  0  0
   92.0730   94.3640  -41.5890 C   0  0  0  0  0  0
   91.4930   98.6960  -43.5720 C   0  0  0  0  0  0
   92.2660   92.9920  -41.4830 C   0  0  0  0  0  0
   92.0140   92.8190  -43.8800 C   0  0  0  0  0  0
   92.2340   92.2080  -42.6450 C   0  0  0  0  0  0
   92.5470  100.9180  -44.0080 C   0  0  0  0  0  0
   90.0610  100.7620  -43.6920 C   0  0  0  0  0  0
   92.5770   99.4420  -44.3620 C   0  0  0  0  0  0
   90.1290   99.2640  -43.9690 C   0  0  0  0  0  0
   91.6815   96.8039  -41.7774 H   0  0  0  0  0  0
   91.1480  102.5190  -44.0610 H   0  0  0  0  0  0
   91.0443  101.3749  -45.4419 H   0  0  0  0  0  0
   91.9381   96.2689  -40.5920 H   0  0  0  0  0  0
   91.6589   94.6518  -44.9637 H   0  0  0  0  0  0
   91.6578   98.8234  -42.4919 H   0  0  0  0  0  0
   92.4398   92.5318  -40.5103 H   0  0  0  0  0  0
   92.3799   91.1295  -42.5841 H   0  0  0  0  0  0
   93.3193  101.4562  -44.5771 H   0  0  0  0  0  0
   92.7270  101.0493  -42.9308 H   0  0  0  0  0  0
   90.1099  100.9305  -42.6061 H   0  0  0  0  0  0
   89.1119  101.1582  -44.0821 H   0  0  0  0  0  0
   93.5645   99.0276  -44.1107 H   0  0  0  0  0  0
   92.3928   99.3226  -45.4399 H   0  0  0  0  0  0
   89.9600   99.0952  -45.0428 H   0  0  0  0  0  0
   89.3400   98.7615  -43.3902 H   0  0  0  0  0  0
  1 12  1  0  0  0
  2  3  1  0  0  0
  2  4  2  0  0  0
  2 10  1  0  0  0
  3  5  1  0  0  0
  3 18  1  0  0  0
  5  8  2  0  0  0
  5  9  1  0  0  0
  6 14  1  0  0  0
  6 15  1  0  0  0
  6 19  1  0  0  0
  6 20  1  0  0  0
  7  9  1  0  0  0
  7 21  1  0  0  0
  8 12  1  0  0  0
  8 22  1  0  0  0
  9 11  2  0  0  0
 10 16  1  0  0  0
 10 17  1  0  0  0
 10 23  1  0  0  0
 11 13  1  0  0  0
 11 24  1  0  0  0
 12 13  2  0  0  0
 13 25  1  0  0  0
 14 16  1  0  0  0
 14 26  1  0  0  0
 14 27  1  0  0  0
 15 17  1  0  0  0
 15 28  1  0  0  0
 15 29  1  0  0  0
 16 30  1  0  0  0
 16 31  1  0  0  0
 17 32  1  0  0  0
 17 33  1  0  0  0
M  CHG  1   6   1
M  END
> <s_m_source_file>
../5aom_ligand.sdf

> <i_m_source_file_index>
1

> <s_epik_input>
W09IXWMxW2NIXVtjSF1jKENsKVtjSF1jMVtOSF1DKD1PKVtDSF0yW0NIMl1bQ0gyXVtOSDIrXVtDSDJdW0NIMl0y

> <s_epik_cmdline>
J2VwaWtfYXBwJywgJy1pbWFlJywgJ2xpZ2FuZF9wcm8ubWFlJywgJy1vbWFlJywgJ2xpZ2FuZF9wcmVwLm1hZScsICctbXMnLCAnMScsICctcGgnLCAnNycsICctcGh0JywgJzAuNScsICctbnQn

> <r_lp_tautomer_probability>
1

> <r_epik_Ionization_Penalty>
  0.0067

> <r_epik_Ionization_Penalty_Charging>
  0.0011

> <r_epik_Ionization_Penalty_Neutral>
  0.0056

> <r_epik_State_Penalty>
 -0.0000

> <r_epik_Charging_Adjusted_Penalty>
0.00109871187799263

> <i_epik_Tot_Q>
1

> <i_epik_Tot_abs_Q>
1

$$$$
