5ap0_ligand
                    3D
 Schrodinger Suite 2020-3.
 66 70  0  0  1  0            999 V2000
   -2.8270   15.9450  -18.0020 O   0  0  0  0  0  0
   -2.0900   14.9910  -18.0040 C   0  0  0  0  0  0
   -1.7200   14.2580  -19.1490 N   0  0  0  0  0  0
   -2.1870   14.5570  -20.4880 C   0  0  0  0  0  0
   -0.8660   13.2240  -18.7590 C   0  0  0  0  0  0
   -0.2060   12.2150  -19.4200 C   0  0  0  0  0  0
    0.5460   11.3330  -18.7530 N   0  0  0  0  0  0
   -1.4500   14.3940  -16.8860 N   0  0  0  0  0  0
   -1.5440   14.8660  -15.4980 C   0  0  0  0  0  0
   -0.1740   15.2540  -14.9210 C   0  0  0  0  0  0
   -0.2530   14.9890  -13.4210 C   0  0  0  0  0  0
   -1.4040   14.0110  -13.1970 C   0  0  0  0  0  0
   -2.0660   13.7770  -14.5530 C   0  0  0  0  0  0
   -0.7050   13.3030  -17.3420 C   0  0  0  0  0  0
    0.0260   12.4520  -16.6030 N   0  0  0  0  0  0
    0.6140   11.4810  -17.3790 C   0  0  0  0  0  0
    1.3470   10.4800  -16.7780 N   0  0  0  0  0  0
    1.6090   10.2850  -15.4100 C   0  0  0  0  0  0
    1.5410    9.0290  -14.8180 C   0  0  0  0  0  0
    1.1650    7.9450  -15.5570 O   0  0  0  0  0  0
    2.1670    6.9660  -15.6410 C   0  0  0  0  0  0
    1.8240    8.8380  -13.4760 C   0  0  0  0  0  0
    2.1780    9.9320  -12.7180 C   0  0  0  0  0  0
    2.2370   11.2150  -13.2730 C   0  0  0  0  0  0
    1.9560   11.3860  -14.6160 C   0  0  0  0  0  0
    2.5420    9.7890  -11.4130 O   0  0  0  0  0  0
    1.8120   10.4910  -10.4350 C   0  0  2  0  0  0
    2.7030   10.5430   -9.1860 C   0  0  0  0  0  0
    1.8970   11.0810   -7.9990 C   0  0  0  0  0  0
    0.6960   10.2710   -7.6980 N   0  3  1  0  0  0
   -0.0420   10.7960   -6.5220 C   0  0  0  0  0  0
   -0.1520   10.1750   -8.9110 C   0  0  0  0  0  0
    0.5810    9.6250  -10.1480 C   0  0  0  0  0  0
   -2.8480   15.4358  -20.4581 H   0  0  0  0  0  0
   -2.7422   13.6939  -20.8839 H   0  0  0  0  0  0
   -1.3253   14.7683  -21.1382 H   0  0  0  0  0  0
   -0.2970   12.1329  -20.5031 H   0  0  0  0  0  0
   -2.2301   15.7203  -15.5956 H   0  0  0  0  0  0
    0.6088   14.6400  -15.3904 H   0  0  0  0  0  0
    0.0221   16.3170  -15.1251 H   0  0  0  0  0  0
    0.6968   14.5555  -13.0747 H   0  0  0  0  0  0
   -0.4393   15.9347  -12.8909 H   0  0  0  0  0  0
   -1.0099   13.0680  -12.7903 H   0  0  0  0  0  0
   -2.1214   14.4458  -12.4854 H   0  0  0  0  0  0
   -3.1601   13.8562  -14.4711 H   0  0  0  0  0  0
   -1.7988   12.7870  -14.9512 H   0  0  0  0  0  0
    1.8166    9.6976  -17.3923 H   0  0  0  0  0  0
    1.8051    6.1220  -16.2465 H   0  0  0  0  0  0
    2.4186    6.6112  -14.6306 H   0  0  0  0  0  0
    3.0627    7.3975  -16.1117 H   0  0  0  0  0  0
    1.7679    7.8450  -13.0300 H   0  0  0  0  0  0
    2.5019   12.0713  -12.6528 H   0  0  0  0  0  0
    2.0046   12.3809  -15.0586 H   0  0  0  0  0  0
    1.5539   11.4945  -10.8043 H   0  0  0  0  0  0
    3.0657    9.5312   -8.9520 H   0  0  0  0  0  0
    3.5607   11.2054   -9.3747 H   0  0  0  0  0  0
    2.5293   11.0865   -7.0989 H   0  0  0  0  0  0
    1.5616   12.1055   -8.2177 H   0  0  0  0  0  0
    1.0119    9.2545   -7.4207 H   0  0  0  0  0  0
    0.6348   10.8447   -5.6562 H   0  0  0  0  0  0
   -0.8856   10.1290   -6.2909 H   0  0  0  0  0  0
   -0.4221   11.8033   -6.7474 H   0  0  0  0  0  0
   -1.0009    9.5041   -8.7128 H   0  0  0  0  0  0
   -0.5283   11.1742   -9.1753 H   0  0  0  0  0  0
   -0.0941    9.6482  -11.0162 H   0  0  0  0  0  0
    0.8978    8.5890   -9.9575 H   0  0  0  0  0  0
  1  2  2  0  0  0
  2  3  1  0  0  0
  2  8  1  0  0  0
  3  4  1  0  0  0
  3  5  1  0  0  0
  4 34  1  0  0  0
  4 35  1  0  0  0
  4 36  1  0  0  0
  5  6  2  0  0  0
  5 14  1  0  0  0
  6  7  1  0  0  0
  6 37  1  0  0  0
  7 16  2  0  0  0
  8  9  1  0  0  0
  8 14  1  0  0  0
  9 10  1  0  0  0
  9 13  1  0  0  0
  9 38  1  0  0  0
 10 11  1  0  0  0
 10 39  1  0  0  0
 10 40  1  0  0  0
 11 12  1  0  0  0
 11 41  1  0  0  0
 11 42  1  0  0  0
 12 13  1  0  0  0
 12 43  1  0  0  0
 12 44  1  0  0  0
 13 45  1  0  0  0
 13 46  1  0  0  0
 14 15  2  0  0  0
 15 16  1  0  0  0
 16 17  1  0  0  0
 17 18  1  0  0  0
 17 47  1  0  0  0
 18 19  2  0  0  0
 18 25  1  0  0  0
 19 20  1  0  0  0
 19 22  1  0  0  0
 20 21  1  0  0  0
 21 48  1  0  0  0
 21 49  1  0  0  0
 21 50  1  0  0  0
 22 23  2  0  0  0
 22 51  1  0  0  0
 23 24  1  0  0  0
 23 26  1  0  0  0
 24 25  2  0  0  0
 24 52  1  0  0  0
 25 53  1  0  0  0
 26 27  1  0  0  0
 27 28  1  0  0  0
 27 33  1  0  0  0
 27 54  1  0  0  0
 28 29  1  0  0  0
 28 55  1  0  0  0
 28 56  1  0  0  0
 29 30  1  0  0  0
 29 57  1  0  0  0
 29 58  1  0  0  0
 30 31  1  0  0  0
 30 32  1  0  0  0
 30 59  1  0  0  0
 31 60  1  0  0  0
 31 61  1  0  0  0
 31 62  1  0  0  0
 32 33  1  0  0  0
 32 63  1  0  0  0
 32 64  1  0  0  0
 33 65  1  0  0  0
 33 66  1  0  0  0
M  CHG  1  30   1
M  END
> <s_m_source_file>
../5ap0_ligand.sdf

> <i_m_source_file_index>
1

> <s_epik_input>
W0NIMl0xW0NIMl1bQ0gyXVtDSDJdW0NIXTFuKGMoPU8pbjJbQ0gzXSljKGMyMyluYyhuW2NIXTMpW05IXWM0YyhPW0NIM10pW2NIXWMoW2NIXVtjSF00KU9bQ0BASF01W0NIMl1bQ0gyXVtOQEBIK10oW0NIM10pW0NIMl1bQ0gyXTU=

> <s_epik_cmdline>
J2VwaWtfYXBwJywgJy1pbWFlJywgJ2xpZ2FuZF9wcm8ubWFlJywgJy1vbWFlJywgJ2xpZ2FuZF9wcmVwLm1hZScsICctbXMnLCAnMScsICctcGgnLCAnNycsICctcGh0JywgJzAuNScsICctbnQn

> <r_lp_tautomer_probability>
1

> <r_epik_Ionization_Penalty>
  0.0105

> <r_epik_Ionization_Penalty_Charging>
  0.0103

> <r_epik_Ionization_Penalty_Neutral>
  0.0002

> <r_epik_State_Penalty>
  0.0079

> <r_epik_Charging_Adjusted_Penalty>
0.0182439653218293

> <i_epik_Tot_Q>
1

> <i_epik_Tot_abs_Q>
1

$$$$
