5ap1_ligand
                    3D
 Schrodinger Suite 2020-3.
 57 60  0  0  1  0            999 V2000
    0.2040  -20.2980  -53.0150 N   0  0  0  0  0  0
   -0.9240  -20.3070  -52.8030 C   0  0  0  0  0  0
   -2.3520  -20.3150  -52.5400 C   0  0  0  0  0  0
   -2.5940  -19.0980  -51.8330 O   0  0  0  0  0  0
   -2.0900  -18.9440  -50.5360 C   0  0  0  0  0  0
   -2.1480  -17.6760  -49.9790 C   0  0  0  0  0  0
   -2.6880  -16.5540  -50.6860 C   0  0  0  0  0  0
   -3.4830  -16.5460  -51.8240 C   0  0  0  0  0  0
   -2.5110  -15.1890  -50.3280 C   0  0  0  0  0  0
   -3.1600  -14.3830  -51.1950 N   0  0  0  0  0  0
   -3.7420  -15.2170  -52.0910 N   0  0  0  0  0  0
   -4.5450  -14.7130  -53.2010 C   0  0  0  0  0  0
   -1.5650  -20.0280  -49.8190 C   0  0  0  0  0  0
   -1.0940  -19.8370  -48.5350 C   0  0  0  0  0  0
   -1.1520  -18.5620  -47.9610 C   0  0  0  0  0  0
   -1.6700  -17.5080  -48.6790 C   0  0  0  0  0  0
   -0.5240  -20.8770  -47.7820 N   0  0  0  0  0  0
    0.2760  -20.8310  -46.6580 C   0  0  0  0  0  0
    0.6210  -19.6370  -46.1320 N   0  0  0  0  0  0
    1.4590  -19.6670  -45.0540 C   0  0  0  0  0  0
    1.9570  -20.8740  -44.5130 C   0  0  0  0  0  0
    2.8600  -20.8790  -43.4410 C   0  0  0  0  0  0
    3.6010  -20.8750  -42.5660 N   0  0  0  0  0  0
    1.5570  -22.0750  -45.0770 C   0  0  0  0  0  0
    0.7110  -22.0780  -46.1490 C   0  0  0  0  0  0
    1.7950  -18.4750  -44.4910 N   0  0  0  0  0  0
    1.3020  -17.1980  -44.9970 C   0  0  0  0  0  0
    2.3630  -16.1130  -44.7800 C   0  0  0  0  0  0
    1.8580  -14.7340  -45.1730 C   0  0  0  0  0  0
    0.5970  -14.3900  -44.3980 C   0  0  0  0  0  0
   -0.4800  -15.4270  -44.6730 C   0  0  0  0  0  0
    0.0090  -16.8110  -44.2690 C   0  0  0  0  0  0
   -2.9001  -20.3510  -53.4930 H   0  0  0  0  0  0
   -2.6086  -21.1977  -51.9358 H   0  0  0  0  0  0
   -3.8307  -17.4105  -52.3896 H   0  0  0  0  0  0
   -1.9318  -14.8418  -49.4724 H   0  0  0  0  0  0
   -4.9172  -15.5587  -53.7979 H   0  0  0  0  0  0
   -3.9260  -14.0611  -53.8349 H   0  0  0  0  0  0
   -5.3968  -14.1395  -52.8066 H   0  0  0  0  0  0
   -1.5286  -21.0181  -50.2733 H   0  0  0  0  0  0
   -0.7873  -18.4037  -46.9461 H   0  0  0  0  0  0
   -1.7076  -16.5194  -48.2214 H   0  0  0  0  0  0
   -0.6969  -21.9241  -48.0712 H   0  0  0  0  0  0
    1.9177  -23.0174  -44.6649 H   0  0  0  0  0  0
    0.3803  -23.0137  -46.5997 H   0  0  0  0  0  0
    2.4666  -18.4992  -43.6202 H   0  0  0  0  0  0
    1.1089  -17.3422  -46.0703 H   0  0  0  0  0  0
    2.6463  -16.0845  -43.7175 H   0  0  0  0  0  0
    3.2498  -16.3401  -45.3899 H   0  0  0  0  0  0
    2.6308  -13.9834  -44.9505 H   0  0  0  0  0  0
    1.6317  -14.7194  -46.2494 H   0  0  0  0  0  0
    0.8207  -14.3768  -43.3211 H   0  0  0  0  0  0
    0.2340  -13.3994  -44.7093 H   0  0  0  0  0  0
   -1.3826  -15.1805  -44.0945 H   0  0  0  0  0  0
   -0.7215  -15.4291  -45.7462 H   0  0  0  0  0  0
   -0.7799  -17.5384  -44.5111 H   0  0  0  0  0  0
    0.1858  -16.8096  -43.1833 H   0  0  0  0  0  0
  1  2  3  0  0  0
  2  3  1  0  0  0
  3  4  1  0  0  0
  3 33  1  0  0  0
  3 34  1  0  0  0
  4  5  1  0  0  0
  5  6  2  0  0  0
  5 13  1  0  0  0
  6  7  1  0  0  0
  6 16  1  0  0  0
  7  8  2  0  0  0
  7  9  1  0  0  0
  8 11  1  0  0  0
  8 35  1  0  0  0
  9 10  2  0  0  0
  9 36  1  0  0  0
 10 11  1  0  0  0
 11 12  1  0  0  0
 12 37  1  0  0  0
 12 38  1  0  0  0
 12 39  1  0  0  0
 13 14  2  0  0  0
 13 40  1  0  0  0
 14 15  1  0  0  0
 14 17  1  0  0  0
 15 16  2  0  0  0
 15 41  1  0  0  0
 16 42  1  0  0  0
 17 18  1  0  0  0
 17 43  1  0  0  0
 18 19  2  0  0  0
 18 25  1  0  0  0
 19 20  1  0  0  0
 20 21  2  0  0  0
 20 26  1  0  0  0
 21 22  1  0  0  0
 21 24  1  0  0  0
 22 23  3  0  0  0
 24 25  2  0  0  0
 24 44  1  0  0  0
 25 45  1  0  0  0
 26 27  1  0  0  0
 26 46  1  0  0  0
 27 28  1  0  0  0
 27 32  1  0  0  0
 27 47  1  0  0  0
 28 29  1  0  0  0
 28 48  1  0  0  0
 28 49  1  0  0  0
 29 30  1  0  0  0
 29 50  1  0  0  0
 29 51  1  0  0  0
 30 31  1  0  0  0
 30 52  1  0  0  0
 30 53  1  0  0  0
 31 32  1  0  0  0
 31 54  1  0  0  0
 31 55  1  0  0  0
 32 56  1  0  0  0
 32 57  1  0  0  0
M  END
> <s_m_source_file>
../5ap1_ligand.sdf

> <i_m_source_file_index>
1

> <s_epik_input>
TiNDW0NIMl1PYzFjKC1jMltjSF1uKFtDSDNdKW5bY0hdMilbY0hdW2NIXWMoW2NIXTEpW05IXWMzbmMoYyhDI04pW2NIXVtjSF0zKVtOSF1bQ0hdNFtDSDJdW0NIMl1bQ0gyXVtDSDJdW0NIMl00

> <s_epik_cmdline>
J2VwaWtfYXBwJywgJy1pbWFlJywgJ2xpZ2FuZF9wcm8ubWFlJywgJy1vbWFlJywgJ2xpZ2FuZF9wcmVwLm1hZScsICctbXMnLCAnMScsICctcGgnLCAnNycsICctcGh0JywgJzAuNScsICctbnQn

> <r_lp_tautomer_probability>
1

> <r_epik_Ionization_Penalty>
  0.0001

> <r_epik_Ionization_Penalty_Charging>
  0.0000

> <r_epik_Ionization_Penalty_Neutral>
  0.0001

> <r_epik_State_Penalty>
 -0.0000

> <r_epik_Charging_Adjusted_Penalty>
0

> <i_epik_Tot_Q>
0

> <i_epik_Tot_abs_Q>
0

$$$$
