5ap3_ligand
                    3D
 Schrodinger Suite 2020-3.
 66 70  0  0  1  0            999 V2000
   -3.0650   39.5220  129.3510 O   0  0  0  0  0  0
   -2.3080   40.4660  129.3470 C   0  0  0  0  0  0
   -1.9110   41.1870  130.4890 N   0  0  0  0  0  0
   -2.3620   40.8790  131.8320 C   0  0  0  0  0  0
   -1.0480   42.2130  130.0950 C   0  0  0  0  0  0
   -0.3680   43.2140  130.7560 C   0  0  0  0  0  0
    0.3900   44.0940  130.0840 N   0  0  0  0  0  0
   -1.6750   41.0600  128.2250 N   0  0  0  0  0  0
   -1.8050   40.6070  126.8370 C   0  0  0  0  0  0
   -0.4420   40.2700  126.2100 C   0  0  0  0  0  0
   -0.5470   40.6250  124.7280 C   0  0  0  0  0  0
   -1.8160   41.4540  124.5440 C   0  0  0  0  0  0
   -2.3780   41.7050  125.9370 C   0  0  0  0  0  0
   -0.9050   42.1370  128.6760 C   0  0  0  0  0  0
   -0.1650   42.9830  127.9300 N   0  0  0  0  0  0
    0.4470   43.9480  128.7050 C   0  0  0  0  0  0
    1.1940   44.9380  128.0890 N   0  0  0  0  0  0
    1.4340   45.0940  126.7110 C   0  0  0  0  0  0
    1.5440   46.3340  126.0930 C   0  0  0  0  0  0
    1.4370   47.4750  126.8380 O   0  0  0  0  0  0
    0.4280   48.3440  126.3790 C   0  0  0  0  0  0
    1.7750   46.4480  124.7240 C   0  0  0  0  0  0
    1.9010   45.2920  123.9800 C   0  0  0  0  0  0
    1.7910   44.0340  124.5710 C   0  0  0  0  0  0
    1.5600   43.9410  125.9290 C   0  0  0  0  0  0
    2.1600   45.3210  122.6400 O   0  0  0  0  0  0
    1.0310   45.2430  121.8000 C   0  0  2  0  0  0
    1.3950   44.4680  120.5290 C   0  0  0  0  0  0
    0.1780   44.4750  119.5900 C   0  0  0  0  0  0
   -0.3210   45.8340  119.2440 N   0  3  1  0  0  0
   -1.5510   45.7720  118.4160 C   0  0  0  0  0  0
   -0.5220   46.6500  120.4690 C   0  0  0  0  0  0
    0.6840   46.6840  121.4230 C   0  0  0  0  0  0
   -3.0359   40.0101  131.8022 H   0  0  0  0  0  0
   -2.8987   41.7453  132.2462 H   0  0  0  0  0  0
   -1.4936   40.6480  132.4664 H   0  0  0  0  0  0
   -0.4474   43.2916  131.8403 H   0  0  0  0  0  0
   -2.4666   39.7339  126.9370 H   0  0  0  0  0  0
    0.3441   40.8621  126.7014 H   0  0  0  0  0  0
   -0.2317   39.1986  126.3437 H   0  0  0  0  0  0
    0.3380   41.2044  124.4262 H   0  0  0  0  0  0
   -0.6012   39.7016  124.1327 H   0  0  0  0  0  0
   -1.5655   42.4021  124.0456 H   0  0  0  0  0  0
   -2.5337   40.8937  123.9268 H   0  0  0  0  0  0
   -3.4762   41.6426  125.9364 H   0  0  0  0  0  0
   -2.0669   42.6896  126.3163 H   0  0  0  0  0  0
    1.6786   45.7183  128.6943 H   0  0  0  0  0  0
    0.3950   49.2380  127.0190 H   0  0  0  0  0  0
   -0.5438   47.8299  126.4168 H   0  0  0  0  0  0
    0.6448   48.6427  125.3428 H   0  0  0  0  0  0
    1.8544   47.4270  124.2513 H   0  0  0  0  0  0
    1.8865   43.1321  123.9664 H   0  0  0  0  0  0
    1.4750   42.9599  126.3962 H   0  0  0  0  0  0
    0.2369   44.7274  122.3599 H   0  0  0  0  0  0
    2.2520   44.9517  120.0374 H   0  0  0  0  0  0
    1.6599   43.4336  120.7934 H   0  0  0  0  0  0
    0.4417   43.9787  118.6444 H   0  0  0  0  0  0
   -0.6555   43.9378  120.0660 H   0  0  0  0  0  0
    0.4460   46.3319  118.6326 H   0  0  0  0  0  0
   -1.3605   45.1606  117.5216 H   0  0  0  0  0  0
   -1.8390   46.7887  118.1106 H   0  0  0  0  0  0
   -2.3652   45.3207  119.0021 H   0  0  0  0  0  0
   -0.7326   47.6917  120.1852 H   0  0  0  0  0  0
   -1.3700   46.2477  121.0425 H   0  0  0  0  0  0
    0.4329   47.2504  122.3319 H   0  0  0  0  0  0
    1.5473   47.1512  120.9266 H   0  0  0  0  0  0
  1  2  2  0  0  0
  2  3  1  0  0  0
  2  8  1  0  0  0
  3  4  1  0  0  0
  3  5  1  0  0  0
  4 34  1  0  0  0
  4 35  1  0  0  0
  4 36  1  0  0  0
  5  6  2  0  0  0
  5 14  1  0  0  0
  6  7  1  0  0  0
  6 37  1  0  0  0
  7 16  2  0  0  0
  8  9  1  0  0  0
  8 14  1  0  0  0
  9 10  1  0  0  0
  9 13  1  0  0  0
  9 38  1  0  0  0
 10 11  1  0  0  0
 10 39  1  0  0  0
 10 40  1  0  0  0
 11 12  1  0  0  0
 11 41  1  0  0  0
 11 42  1  0  0  0
 12 13  1  0  0  0
 12 43  1  0  0  0
 12 44  1  0  0  0
 13 45  1  0  0  0
 13 46  1  0  0  0
 14 15  2  0  0  0
 15 16  1  0  0  0
 16 17  1  0  0  0
 17 18  1  0  0  0
 17 47  1  0  0  0
 18 19  2  0  0  0
 18 25  1  0  0  0
 19 20  1  0  0  0
 19 22  1  0  0  0
 20 21  1  0  0  0
 21 48  1  0  0  0
 21 49  1  0  0  0
 21 50  1  0  0  0
 22 23  2  0  0  0
 22 51  1  0  0  0
 23 24  1  0  0  0
 23 26  1  0  0  0
 24 25  2  0  0  0
 24 52  1  0  0  0
 25 53  1  0  0  0
 26 27  1  0  0  0
 27 28  1  0  0  0
 27 33  1  0  0  0
 27 54  1  0  0  0
 28 29  1  0  0  0
 28 55  1  0  0  0
 28 56  1  0  0  0
 29 30  1  0  0  0
 29 57  1  0  0  0
 29 58  1  0  0  0
 30 31  1  0  0  0
 30 32  1  0  0  0
 30 59  1  0  0  0
 31 60  1  0  0  0
 31 61  1  0  0  0
 31 62  1  0  0  0
 32 33  1  0  0  0
 32 63  1  0  0  0
 32 64  1  0  0  0
 33 65  1  0  0  0
 33 66  1  0  0  0
M  CHG  1  30   1
M  END
> <s_m_source_file>
../5ap3_ligand.sdf

> <i_m_source_file_index>
1

> <s_epik_input>
W0NIMl0xW0NIMl1bQ0gyXVtDSDJdW0NIXTFuKGMoPU8pbjJbQ0gzXSljKGMyMyluYyhuW2NIXTMpW05IXWM0YyhPW0NIM10pW2NIXWMoW2NIXVtjSF00KU9bQ0BASF01W0NIMl1bQ0gyXVtOQEBIK10oW0NIM10pW0NIMl1bQ0gyXTU=

> <s_epik_cmdline>
J2VwaWtfYXBwJywgJy1pbWFlJywgJ2xpZ2FuZF9wcm8ubWFlJywgJy1vbWFlJywgJ2xpZ2FuZF9wcmVwLm1hZScsICctbXMnLCAnMScsICctcGgnLCAnNycsICctcGh0JywgJzAuNScsICctbnQn

> <r_lp_tautomer_probability>
1

> <r_epik_Ionization_Penalty>
  0.0105

> <r_epik_Ionization_Penalty_Charging>
  0.0103

> <r_epik_Ionization_Penalty_Neutral>
  0.0002

> <r_epik_State_Penalty>
  0.0079

> <r_epik_Charging_Adjusted_Penalty>
0.0182439653218293

> <i_epik_Tot_Q>
1

> <i_epik_Tot_abs_Q>
1

$$$$
