5ap4_ligand
                    3D
 Schrodinger Suite 2020-3.
 57 60  0  0  1  0            999 V2000
   -0.0580   -6.9250  -16.0290 N   0  0  0  0  0  0
   -1.1370   -7.2330  -15.8770 C   0  0  0  0  0  0
   -2.5080   -7.6070  -15.6570 C   0  0  0  0  0  0
   -2.6000   -8.5050  -14.5640 O   0  0  0  0  0  0
   -2.2240   -9.8390  -14.7090 C   0  0  0  0  0  0
   -2.3430  -10.6520  -13.5880 C   0  0  0  0  0  0
   -2.8600  -10.1930  -12.3280 C   0  0  0  0  0  0
   -3.5510   -9.0170  -12.0460 C   0  0  0  0  0  0
   -2.7770  -10.8900  -11.0800 C   0  0  0  0  0  0
   -3.3820  -10.1880  -10.0920 N   0  0  0  0  0  0
   -3.8460   -9.0590  -10.6900 N   0  0  0  0  0  0
   -4.5730   -8.0360   -9.9350 C   0  0  0  0  0  0
   -1.7460  -10.3380  -15.9310 C   0  0  0  0  0  0
   -1.3800  -11.6720  -16.0240 C   0  0  0  0  0  0
   -1.4840  -12.4950  -14.9130 C   0  0  0  0  0  0
   -1.9570  -11.9850  -13.7250 C   0  0  0  0  0  0
   -0.9130  -12.1340  -17.2650 N   0  0  0  0  0  0
   -0.0470  -13.1930  -17.4730 C   0  0  0  0  0  0
    0.2420  -14.0200  -16.4360 N   0  0  0  0  0  0
    1.1140  -15.0390  -16.7050 C   0  0  0  0  0  0
    1.6840  -15.2360  -17.9770 C   0  0  0  0  0  0
    2.5770  -16.2870  -18.2280 C   0  0  0  0  0  0
    3.3130  -17.1490  -18.4410 N   0  0  0  0  0  0
    1.3540  -14.3650  -19.0060 C   0  0  0  0  0  0
    0.4890  -13.3320  -18.7770 C   0  0  0  0  0  0
    1.4500  -15.8940  -15.6930 N   0  0  0  0  0  0
    1.0050  -15.7310  -14.3160 C   0  0  0  0  0  0
   -0.2550  -16.5380  -14.0750 C   0  0  0  0  0  0
   -0.7080  -16.4360  -12.6250 C   0  0  0  0  0  0
    0.3880  -16.8610  -11.6750 C   0  0  0  0  0  0
    1.6430  -16.0510  -11.9110 C   0  0  0  0  0  0
    2.1030  -16.1520  -13.3590 C   0  0  0  0  0  0
   -3.1023   -6.7081  -15.4360 H   0  0  0  0  0  0
   -2.9041   -8.0957  -16.5594 H   0  0  0  0  0  0
   -3.8082   -8.2239  -12.7481 H   0  0  0  0  0  0
   -2.2918  -11.8564  -10.9432 H   0  0  0  0  0  0
   -4.8546   -7.2137  -10.6091 H   0  0  0  0  0  0
   -3.9303   -7.6475   -9.1312 H   0  0  0  0  0  0
   -5.4801   -8.4785   -9.4976 H   0  0  0  0  0  0
   -1.6634   -9.6830  -16.7983 H   0  0  0  0  0  0
   -1.1920  -13.5430  -14.9801 H   0  0  0  0  0  0
   -2.0324  -12.6460  -12.8616 H   0  0  0  0  0  0
   -1.2372  -11.6404  -18.1930 H   0  0  0  0  0  0
    1.7850  -14.5049  -19.9973 H   0  0  0  0  0  0
    0.2200  -12.6370  -19.5725 H   0  0  0  0  0  0
    2.0938  -16.7431  -15.9661 H   0  0  0  0  0  0
    0.7874  -14.6616  -14.1784 H   0  0  0  0  0  0
   -1.0613  -16.1605  -14.7210 H   0  0  0  0  0  0
   -0.0632  -17.5957  -14.3082 H   0  0  0  0  0  0
   -0.9823  -15.3950  -12.3989 H   0  0  0  0  0  0
   -1.5800  -17.0876  -12.4666 H   0  0  0  0  0  0
    0.0547  -16.7066  -10.6381 H   0  0  0  0  0  0
    0.6169  -17.9254  -11.8319 H   0  0  0  0  0  0
    1.4460  -14.9938  -11.6795 H   0  0  0  0  0  0
    2.4482  -16.4247  -11.2614 H   0  0  0  0  0  0
    2.3881  -17.1945  -13.5638 H   0  0  0  0  0  0
    2.9779  -15.4992  -13.4947 H   0  0  0  0  0  0
  1  2  3  0  0  0
  2  3  1  0  0  0
  3  4  1  0  0  0
  3 33  1  0  0  0
  3 34  1  0  0  0
  4  5  1  0  0  0
  5  6  2  0  0  0
  5 13  1  0  0  0
  6  7  1  0  0  0
  6 16  1  0  0  0
  7  8  2  0  0  0
  7  9  1  0  0  0
  8 11  1  0  0  0
  8 35  1  0  0  0
  9 10  2  0  0  0
  9 36  1  0  0  0
 10 11  1  0  0  0
 11 12  1  0  0  0
 12 37  1  0  0  0
 12 38  1  0  0  0
 12 39  1  0  0  0
 13 14  2  0  0  0
 13 40  1  0  0  0
 14 15  1  0  0  0
 14 17  1  0  0  0
 15 16  2  0  0  0
 15 41  1  0  0  0
 16 42  1  0  0  0
 17 18  1  0  0  0
 17 43  1  0  0  0
 18 19  2  0  0  0
 18 25  1  0  0  0
 19 20  1  0  0  0
 20 21  2  0  0  0
 20 26  1  0  0  0
 21 22  1  0  0  0
 21 24  1  0  0  0
 22 23  3  0  0  0
 24 25  2  0  0  0
 24 44  1  0  0  0
 25 45  1  0  0  0
 26 27  1  0  0  0
 26 46  1  0  0  0
 27 28  1  0  0  0
 27 32  1  0  0  0
 27 47  1  0  0  0
 28 29  1  0  0  0
 28 48  1  0  0  0
 28 49  1  0  0  0
 29 30  1  0  0  0
 29 50  1  0  0  0
 29 51  1  0  0  0
 30 31  1  0  0  0
 30 52  1  0  0  0
 30 53  1  0  0  0
 31 32  1  0  0  0
 31 54  1  0  0  0
 31 55  1  0  0  0
 32 56  1  0  0  0
 32 57  1  0  0  0
M  END
> <s_m_source_file>
../5ap4_ligand.sdf

> <i_m_source_file_index>
1

> <s_epik_input>
TiNDW0NIMl1PYzFjKC1jMltjSF1uKFtDSDNdKW5bY0hdMilbY0hdW2NIXWMoW2NIXTEpW05IXWMzbmMoYyhDI04pW2NIXVtjSF0zKVtOSF1bQ0hdNFtDSDJdW0NIMl1bQ0gyXVtDSDJdW0NIMl00

> <s_epik_cmdline>
J2VwaWtfYXBwJywgJy1pbWFlJywgJ2xpZ2FuZF9wcm8ubWFlJywgJy1vbWFlJywgJ2xpZ2FuZF9wcmVwLm1hZScsICctbXMnLCAnMScsICctcGgnLCAnNycsICctcGh0JywgJzAuNScsICctbnQn

> <r_lp_tautomer_probability>
1

> <r_epik_Ionization_Penalty>
  0.0001

> <r_epik_Ionization_Penalty_Charging>
  0.0000

> <r_epik_Ionization_Penalty_Neutral>
  0.0001

> <r_epik_State_Penalty>
 -0.0000

> <r_epik_Charging_Adjusted_Penalty>
0

> <i_epik_Tot_Q>
0

> <i_epik_Tot_abs_Q>
0

$$$$
