5ap5_ligand
                    3D
 Schrodinger Suite 2020-3.
 63 66  0  0  1  0            999 V2000
    2.8730  -16.1390  -16.1980 O   0  0  0  0  0  0
    2.2630  -15.1190  -16.3880 C   0  0  0  0  0  0
    1.6950  -14.4020  -15.3850 O   0  0  0  0  0  0
    1.8140  -14.9320  -14.0240 C   0  0  0  0  0  0
    1.2960  -16.3520  -14.0030 C   0  0  0  0  0  0
    3.2770  -14.8760  -13.6520 C   0  0  0  0  0  0
    0.9860  -14.0330  -13.1370 C   0  0  0  0  0  0
    2.0580  -14.5520  -17.6770 N   0  0  0  0  0  0
    2.5530  -14.9960  -18.9450 C   0  0  0  0  0  0
    3.3540  -16.1560  -19.1300 C   0  0  0  0  0  0
    4.4380  -16.6360  -18.3410 C   0  0  0  0  0  0
    4.9330  -17.7760  -18.8730 N   0  0  0  0  0  0
    3.2130  -17.0600  -20.1730 C   0  0  0  0  0  0
    4.1830  -18.0180  -19.9800 N   0  0  0  0  0  0
    4.4250  -19.1800  -20.8350 C   0  0  0  0  0  0
    1.2830  -13.3980  -17.9040 C   0  0  0  0  0  0
    1.3130  -13.1500  -19.2980 C   0  0  0  0  0  0
    2.1080  -14.1520  -19.9160 C   0  0  0  0  0  0
    0.5660  -12.5820  -17.0340 C   0  0  0  0  0  0
   -0.1160  -11.5130  -17.6430 C   0  0  0  0  0  0
   -0.0960  -11.2560  -18.9940 N   0  3  0  0  0  0
    0.6080  -12.0650  -19.7810 C   0  0  0  0  0  0
   -0.8820  -10.6460  -16.8570 N   0  0  0  0  0  0
   -0.9970  -10.5910  -15.4680 C   0  0  0  0  0  0
   -1.1930  -11.7060  -14.6480 C   0  0  0  0  0  0
   -1.3500  -11.5350  -13.2860 C   0  0  0  0  0  0
   -1.3140  -10.2640  -12.7240 C   0  0  0  0  0  0
   -1.1090   -9.1520  -13.5100 C   0  0  0  0  0  0
   -0.9540   -9.3350  -14.8650 C   0  0  0  0  0  0
   -0.6960   -7.9340  -15.8220 Cl  0  0  0  0  0  0
   -1.5170  -10.0940  -11.2700 C   0  0  0  0  0  0
   -2.0610   -9.1100  -10.7940 O   0  0  0  0  0  0
   -1.0550  -11.1240  -10.4590 N   0  0  0  0  0  0
    0.0340  -10.8930   -9.4960 C   0  0  0  0  0  0
   -1.9410  -12.2480  -10.1130 C   0  0  0  0  0  0
    1.9192  -16.9793  -14.6573 H   0  0  0  0  0  0
    0.2561  -16.3683  -14.3613 H   0  0  0  0  0  0
    1.3358  -16.7416  -12.9751 H   0  0  0  0  0  0
    3.8498  -15.5404  -14.3157 H   0  0  0  0  0  0
    3.4029  -15.2023  -12.6091 H   0  0  0  0  0  0
    3.6436  -13.8446  -13.7604 H   0  0  0  0  0  0
   -0.0711  -14.0975  -13.4342 H   0  0  0  0  0  0
    1.3334  -12.9945  -13.2410 H   0  0  0  0  0  0
    1.0926  -14.3522  -12.0897 H   0  0  0  0  0  0
    4.8142  -16.1540  -17.4387 H   0  0  0  0  0  0
    2.4826  -17.0200  -20.9811 H   0  0  0  0  0  0
    5.2638  -19.7650  -20.4298 H   0  0  0  0  0  0
    4.6714  -18.8417  -21.8523 H   0  0  0  0  0  0
    3.5217  -19.8070  -20.8658 H   0  0  0  0  0  0
    2.3240  -14.2312  -20.9815 H   0  0  0  0  0  0
    0.5351  -12.7584  -15.9588 H   0  0  0  0  0  0
    0.6294  -11.8632  -20.8519 H   0  0  0  0  0  0
   -1.5045   -9.8753  -17.3351 H   0  0  0  0  0  0
   -1.2218  -12.7058  -15.0811 H   0  0  0  0  0  0
   -1.5034  -12.4043  -12.6465 H   0  0  0  0  0  0
   -1.0706   -8.1550  -13.0712 H   0  0  0  0  0  0
    0.6437  -10.0404   -9.8296 H   0  0  0  0  0  0
    0.6644  -11.7922   -9.4328 H   0  0  0  0  0  0
   -0.3924  -10.6738   -8.5060 H   0  0  0  0  0  0
   -2.7218  -12.3493  -10.8811 H   0  0  0  0  0  0
   -2.4099  -12.0580   -9.1363 H   0  0  0  0  0  0
   -1.3531  -13.1764  -10.0631 H   0  0  0  0  0  0
   -0.6535  -10.3986  -19.3991 H   0  0  0  0  0  0
  1  2  2  0  0  0
  2  3  1  0  0  0
  2  8  1  0  0  0
  3  4  1  0  0  0
  4  5  1  0  0  0
  4  6  1  0  0  0
  4  7  1  0  0  0
  5 36  1  0  0  0
  5 37  1  0  0  0
  5 38  1  0  0  0
  6 39  1  0  0  0
  6 40  1  0  0  0
  6 41  1  0  0  0
  7 42  1  0  0  0
  7 43  1  0  0  0
  7 44  1  0  0  0
  8  9  1  0  0  0
  8 16  1  0  0  0
  9 10  1  0  0  0
  9 18  2  0  0  0
 10 11  1  0  0  0
 10 13  2  0  0  0
 11 12  2  0  0  0
 11 45  1  0  0  0
 12 14  1  0  0  0
 13 14  1  0  0  0
 13 46  1  0  0  0
 14 15  1  0  0  0
 15 47  1  0  0  0
 15 48  1  0  0  0
 15 49  1  0  0  0
 16 17  2  0  0  0
 16 19  1  0  0  0
 17 18  1  0  0  0
 17 22  1  0  0  0
 18 50  1  0  0  0
 19 20  2  0  0  0
 19 51  1  0  0  0
 20 21  1  0  0  0
 20 23  1  0  0  0
 21 22  2  0  0  0
 21 63  1  0  0  0
 22 52  1  0  0  0
 23 24  1  0  0  0
 23 53  1  0  0  0
 24 25  2  0  0  0
 24 29  1  0  0  0
 25 26  1  0  0  0
 25 54  1  0  0  0
 26 27  2  0  0  0
 26 55  1  0  0  0
 27 28  1  0  0  0
 27 31  1  0  0  0
 28 29  2  0  0  0
 28 56  1  0  0  0
 29 30  1  0  0  0
 31 32  2  0  0  0
 31 33  1  0  0  0
 33 34  1  0  0  0
 33 35  1  0  0  0
 34 57  1  0  0  0
 34 58  1  0  0  0
 34 59  1  0  0  0
 35 60  1  0  0  0
 35 61  1  0  0  0
 35 62  1  0  0  0
M  CHG  1  21   1
M  END
> <s_m_source_file>
../5ap5_ligand.sdf

> <i_m_source_file_index>
1

> <s_epik_input>
W0NIM11DKFtDSDNdKShbQ0gzXSlPQyg9TyluMWMoLWMyW2NIXW5uKFtjSF0yKVtDSDNdKVtjSF1jKGMxMylbY0hdbmMoW2NIXTMpW05IXWM0W2NIXVtjSF1jKFtjSF1jNENsKUMoPU8pTihbQ0gzXSlbQ0gzXQ==

> <s_epik_cmdline>
J2VwaWtfYXBwJywgJy1pbWFlJywgJ2xpZ2FuZF9wcm8ubWFlJywgJy1vbWFlJywgJ2xpZ2FuZF9wcmVwLm1hZScsICctbXMnLCAnMScsICctcGgnLCAnNycsICctcGh0JywgJzAuNScsICctbnQn

> <r_lp_tautomer_probability>
1

> <r_epik_Ionization_Penalty>
  0.0750

> <r_epik_Ionization_Penalty_Charging>
  0.0728

> <r_epik_Ionization_Penalty_Neutral>
  0.0022

> <r_epik_State_Penalty>
  0.0640

> <r_epik_Charging_Adjusted_Penalty>
0.136793561663375

> <i_epik_Tot_Q>
1

> <i_epik_Tot_abs_Q>
1

> <s_epik_Chemistry_Notes>
This compound has an ester and may undergo hydrolysis at high or low pH.

$$$$
