5ap6_ligand
                    3D
 Schrodinger Suite 2020-3.
 64 68  0  0  1  0            999 V2000
  -37.8880  -15.4070  -14.7730 O   0  0  0  0  0  0
  -37.1970  -15.6690  -13.8230 C   0  0  0  0  0  0
  -36.5730  -14.7580  -13.0670 O   0  0  0  0  0  0
  -36.6910  -13.3560  -13.4840 C   0  0  0  0  0  0
  -35.3090  -12.8280  -13.6650 C   0  0  0  0  0  0
  -37.4590  -12.6400  -12.4310 C   0  0  0  0  0  0
  -36.9610  -16.9810  -13.3920 N   0  0  0  0  0  0
  -37.4620  -18.1350  -13.9860 C   0  0  0  0  0  0
  -38.3000  -18.2310  -15.1390 C   0  0  0  0  0  0
  -39.4160  -17.4930  -15.5640 C   0  0  0  0  0  0
  -39.8810  -17.9570  -16.7100 N   0  0  0  0  0  0
  -39.0580  -19.0090  -17.0350 N   0  0  0  0  0  0
  -39.2720  -19.7760  -18.2550 C   0  0  0  0  0  0
  -38.1060  -19.1910  -16.1130 C   0  0  0  0  0  0
  -37.0110  -19.2220  -13.3030 C   0  0  0  0  0  0
  -36.1870  -18.7650  -12.2270 C   0  0  0  0  0  0
  -36.1630  -17.3600  -12.2860 C   0  0  0  0  0  0
  -35.4360  -16.6160  -11.3650 C   0  0  0  0  0  0
  -34.7280  -17.3210  -10.3920 C   0  0  0  0  0  0
  -34.7310  -18.6520  -10.3130 N   0  3  0  0  0  0
  -35.4460  -19.3290  -11.2140 C   0  0  0  0  0  0
  -33.9460  -16.6950   -9.4430 N   0  0  0  0  0  0
  -33.6880  -15.3260   -9.2550 C   0  0  0  0  0  0
  -33.7010  -14.4530  -10.3320 C   0  0  0  0  0  0
  -33.4420  -13.1100  -10.1440 C   0  0  0  0  0  0
  -33.1630  -12.6100   -8.8780 C   0  0  0  0  0  0
  -33.1520  -13.4900   -7.8030 C   0  0  0  0  0  0
  -33.4110  -14.8340   -7.9870 C   0  0  0  0  0  0
  -32.8770  -11.1750   -8.6860 C   0  0  0  0  0  0
  -33.5470  -10.0890   -9.2570 C   0  0  0  0  0  0
  -32.9530   -8.9230   -8.8560 N   0  3  0  0  0  0
  -31.9580   -9.2750   -8.0680 C   0  0  0  0  0  0
  -31.0260   -8.3240   -7.4130 C   0  0  0  0  0  0
  -31.8460  -10.6380   -7.9060 N   0  0  0  0  0  0
  -30.8650  -11.3450   -7.0800 C   0  0  0  0  0  0
  -37.2311  -13.2394  -14.4351 H   0  0  0  0  0  0
  -34.7988  -13.3991  -14.4546 H   0  0  0  0  0  0
  -34.7518  -12.9280  -12.7218 H   0  0  0  0  0  0
  -35.3565  -11.7672  -13.9521 H   0  0  0  0  0  0
  -38.4650  -13.0775  -12.3494 H   0  0  0  0  0  0
  -37.5424  -11.5760  -12.6975 H   0  0  0  0  0  0
  -36.9377  -12.7369  -11.4672 H   0  0  0  0  0  0
  -39.8420  -16.6495  -15.0207 H   0  0  0  0  0  0
  -40.1400  -19.3706  -18.7955 H   0  0  0  0  0  0
  -39.4592  -20.8290  -17.9980 H   0  0  0  0  0  0
  -38.3783  -19.7075  -18.8927 H   0  0  0  0  0  0
  -37.3257  -19.9520  -16.1276 H   0  0  0  0  0  0
  -37.2386  -20.2622  -13.5359 H   0  0  0  0  0  0
  -35.4197  -15.5267  -11.4014 H   0  0  0  0  0  0
  -35.4427  -20.4166  -11.1415 H   0  0  0  0  0  0
  -33.4142  -17.2921   -8.6876 H   0  0  0  0  0  0
  -33.9168  -14.8288  -11.3321 H   0  0  0  0  0  0
  -33.4566  -12.4339  -10.9989 H   0  0  0  0  0  0
  -32.9364  -13.1152   -6.8024 H   0  0  0  0  0  0
  -33.3978  -15.5112   -7.1330 H   0  0  0  0  0  0
  -34.4096  -10.1599   -9.9195 H   0  0  0  0  0  0
  -31.3037   -7.2943   -7.6822 H   0  0  0  0  0  0
  -29.9987   -8.5267   -7.7499 H   0  0  0  0  0  0
  -31.0848   -8.4461   -6.3214 H   0  0  0  0  0  0
  -31.0333  -12.4292   -7.1581 H   0  0  0  0  0  0
  -30.9747  -11.0315   -6.0313 H   0  0  0  0  0  0
  -29.8501  -11.1053   -7.4301 H   0  0  0  0  0  0
  -34.1560  -19.1574   -9.5230 H   0  0  0  0  0  0
  -33.3444   -7.9570   -9.2077 H   0  0  0  0  0  0
  1  2  2  0  0  0
  2  3  1  0  0  0
  2  7  1  0  0  0
  3  4  1  0  0  0
  4  5  1  0  0  0
  4  6  1  0  0  0
  4 36  1  0  0  0
  5 37  1  0  0  0
  5 38  1  0  0  0
  5 39  1  0  0  0
  6 40  1  0  0  0
  6 41  1  0  0  0
  6 42  1  0  0  0
  7  8  1  0  0  0
  7 17  1  0  0  0
  8  9  1  0  0  0
  8 15  2  0  0  0
  9 10  1  0  0  0
  9 14  2  0  0  0
 10 11  2  0  0  0
 10 43  1  0  0  0
 11 12  1  0  0  0
 12 13  1  0  0  0
 12 14  1  0  0  0
 13 44  1  0  0  0
 13 45  1  0  0  0
 13 46  1  0  0  0
 14 47  1  0  0  0
 15 16  1  0  0  0
 15 48  1  0  0  0
 16 17  2  0  0  0
 16 21  1  0  0  0
 17 18  1  0  0  0
 18 19  2  0  0  0
 18 49  1  0  0  0
 19 20  1  0  0  0
 19 22  1  0  0  0
 20 21  2  0  0  0
 20 63  1  0  0  0
 21 50  1  0  0  0
 22 23  1  0  0  0
 22 51  1  0  0  0
 23 24  2  0  0  0
 23 28  1  0  0  0
 24 25  1  0  0  0
 24 52  1  0  0  0
 25 26  2  0  0  0
 25 53  1  0  0  0
 26 27  1  0  0  0
 26 29  1  0  0  0
 27 28  2  0  0  0
 27 54  1  0  0  0
 28 55  1  0  0  0
 29 30  2  0  0  0
 29 34  1  0  0  0
 30 31  1  0  0  0
 30 56  1  0  0  0
 31 32  2  0  0  0
 31 64  1  0  0  0
 32 33  1  0  0  0
 32 34  1  0  0  0
 33 57  1  0  0  0
 33 58  1  0  0  0
 33 59  1  0  0  0
 34 35  1  0  0  0
 35 60  1  0  0  0
 35 61  1  0  0  0
 35 62  1  0  0  0
M  CHG  2  20   1  31   1
M  END
> <s_m_source_file>
../5ap6_ligand.sdf

> <i_m_source_file_index>
1

> <s_epik_input>
W0NIM11uKFtjSF0xKW5bY0hdYzEtYyhbY0hdMiluKEMoPU8pT1tDSF0oW0NIM10pW0NIM10pYyhjMjMpW2NIXWMobltjSF0zKVtOSF1jNFtjSF1bY0hdYyhbY0hdW2NIXTQpLWM1W2NIXW5jKFtDSDNdKW41W0NIM10=

> <s_epik_cmdline>
J2VwaWtfYXBwJywgJy1pbWFlJywgJ2xpZ2FuZF9wcm8ubWFlJywgJy1vbWFlJywgJ2xpZ2FuZF9wcmVwLm1hZScsICctbXMnLCAnMScsICctcGgnLCAnNycsICctcGh0JywgJzAuNScsICctbnQn

> <r_lp_tautomer_probability>
1

> <r_epik_Ionization_Penalty>
  0.2761

> <r_epik_Ionization_Penalty_Charging>
  0.0742

> <r_epik_Ionization_Penalty_Neutral>
  0.2019

> <r_epik_State_Penalty>
 -0.0000

> <r_epik_Charging_Adjusted_Penalty>
0.0742034195237522

> <i_epik_Tot_Q>
2

> <i_epik_Tot_abs_Q>
2

> <s_epik_Chemistry_Notes>
This compound has an ester and may undergo hydrolysis at high or low pH.

$$$$
