5ap7_ligand
                    3D
 Schrodinger Suite 2020-3.
 87 92  0  0  1  0            999 V2000
    2.0090  -14.5080  -19.5950 C   0  0  0  0  0  0
    1.1350  -13.4770  -20.3200 C   0  0  0  0  0  0
    1.8610  -14.5080  -18.0950 C   0  0  0  0  0  0
    1.2230  -13.4970  -17.4090 C   0  0  0  0  0  0
    1.3090  -13.8160  -16.0350 N   0  0  0  0  0  0
    1.9560  -14.9920  -15.8590 N   0  0  0  0  0  0
    2.3060  -15.4420  -17.0640 C   0  0  0  0  0  0
    2.9880  -16.7590  -17.2100 C   0  0  0  0  0  0
    3.0640  -17.4730  -16.0560 N   0  0  0  0  0  0
    3.4090  -17.1590  -18.2960 O   0  0  0  0  0  0
    0.8410  -13.1000  -14.8550 C   0  0  0  0  0  0
    0.5510  -12.3980  -18.0750 C   0  0  0  0  0  0
    0.5700  -12.3610  -19.4740 C   0  0  0  0  0  0
   -0.0350  -11.2450  -20.0140 C   0  0  0  0  0  0
   -0.6140  -10.2650  -19.2990 N   0  0  0  0  0  0
   -0.5900  -10.4240  -17.9670 C   0  0  0  0  0  0
   -0.0390  -11.4600  -17.3210 N   0  0  0  0  0  0
   -1.1620   -9.5090  -17.1320 N   0  0  0  0  0  0
   -1.5690   -9.5700  -15.7660 C   0  0  0  0  0  0
   -1.9110   -8.3710  -15.0870 C   0  0  0  0  0  0
   -2.2920   -8.4000  -13.7500 C   0  0  0  0  0  0
   -2.3820   -9.6180  -13.0790 C   0  0  0  0  0  0
   -2.1440  -10.8020  -13.7750 C   0  0  0  0  0  0
   -1.7350  -10.7830  -15.0970 C   0  0  0  0  0  0
   -1.9590   -7.1570  -15.7640 O   0  0  0  0  0  0
   -2.6040   -9.6750  -11.5970 C   0  0  0  0  0  0
   -3.3160   -8.6800  -11.0460 N   0  0  0  0  0  0
   -2.1370  -10.5920  -10.9220 O   0  0  0  0  0  0
   -3.6380   -8.6470   -9.6190 C   0  0  1  0  0  0
   -2.4920   -8.0510   -8.8110 C   0  0  0  0  0  0
   -2.8800   -7.9420   -7.3290 C   0  0  0  0  0  0
   -4.0940   -7.1450   -7.1590 N   0  3  1  0  0  0
   -5.2080   -7.7860   -7.8580 C   0  0  0  0  0  0
   -4.9320   -7.8840   -9.3640 C   0  0  0  0  0  0
   -4.4050   -6.9750   -5.7390 C   0  0  0  0  0  0
   -1.1190   -6.1580  -15.5060 C   0  0  0  0  0  0
   -1.8500   -5.0800  -15.4070 F   0  0  0  0  0  0
   -0.3220   -5.9900  -16.5300 F   0  0  0  0  0  0
   -0.3800   -6.2200  -14.4220 F   0  0  0  0  0  0
    3.6480  -18.7670  -15.9300 C   0  0  0  0  0  0
    2.9540  -19.9300  -16.3040 C   0  0  0  0  0  0
    3.6630  -21.1290  -16.3120 C   0  0  0  0  0  0
    5.0000  -21.1680  -15.9470 C   0  0  0  0  0  0
    5.6500  -20.0130  -15.5370 C   0  0  0  0  0  0
    4.9780  -18.7920  -15.4870 C   0  0  0  0  0  0
    5.6230  -17.6160  -14.7740 C   0  0  0  0  0  0
    6.4400  -16.7020  -15.6160 C   0  0  0  0  0  0
    1.4700  -19.9650  -16.6170 C   0  0  0  0  0  0
    0.5500  -19.8460  -15.4220 C   0  0  0  0  0  0
    2.6819  -15.1851  -20.1213 H   0  0  0  0  0  0
    0.9325  -13.5461  -21.3888 H   0  0  0  0  0  0
    2.6551  -17.0565  -15.1236 H   0  0  0  0  0  0
    0.3398  -12.1711  -15.1646 H   0  0  0  0  0  0
    1.6981  -12.8567  -14.2098 H   0  0  0  0  0  0
    0.1320  -13.7318  -14.3000 H   0  0  0  0  0  0
   -0.0442  -11.1510  -21.0999 H   0  0  0  0  0  0
   -1.3906   -8.4973  -17.4985 H   0  0  0  0  0  0
   -2.5200   -7.4710  -13.2274 H   0  0  0  0  0  0
   -2.2822  -11.7580  -13.2700 H   0  0  0  0  0  0
   -1.5416  -11.7206  -15.6182 H   0  0  0  0  0  0
   -3.6604   -7.8705  -11.7064 H   0  0  0  0  0  0
   -3.7761   -9.6994   -9.3301 H   0  0  0  0  0  0
   -1.6052   -8.6954   -8.9021 H   0  0  0  0  0  0
   -2.2566   -7.0470   -9.1939 H   0  0  0  0  0  0
   -3.0602   -8.9480   -6.9222 H   0  0  0  0  0  0
   -2.0631   -7.4616   -6.7705 H   0  0  0  0  0  0
   -3.9280   -6.1477   -7.5924 H   0  0  0  0  0  0
   -5.3549   -8.8011   -7.4605 H   0  0  0  0  0  0
   -6.1242   -7.1966   -7.7059 H   0  0  0  0  0  0
   -4.8470   -6.8689   -9.7791 H   0  0  0  0  0  0
   -5.7688   -8.4091   -9.8478 H   0  0  0  0  0  0
   -3.5560   -6.4922   -5.2330 H   0  0  0  0  0  0
   -4.5916   -7.9590   -5.2842 H   0  0  0  0  0  0
   -5.3011   -6.3460   -5.6327 H   0  0  0  0  0  0
    3.1598  -22.0491  -16.6093 H   0  0  0  0  0  0
    5.5438  -22.1120  -15.9824 H   0  0  0  0  0  0
    6.7005  -20.0605  -15.2500 H   0  0  0  0  0  0
    4.8416  -16.9899  -14.3187 H   0  0  0  0  0  0
    6.2980  -17.9883  -13.9893 H   0  0  0  0  0  0
    6.8509  -15.8961  -14.9901 H   0  0  0  0  0  0
    5.8084  -16.2677  -16.4050 H   0  0  0  0  0  0
    7.2649  -17.2662  -16.0756 H   0  0  0  0  0  0
    1.2170  -19.1308  -17.2879 H   0  0  0  0  0  0
    1.2209  -20.9179  -17.1069 H   0  0  0  0  0  0
   -0.4962  -19.8825  -15.7597 H   0  0  0  0  0  0
    0.7367  -18.8909  -14.9092 H   0  0  0  0  0  0
    0.7407  -20.6781  -14.7282 H   0  0  0  0  0  0
  1  2  1  0  0  0
  1  3  2  0  0  0
  1 50  1  0  0  0
  2 13  2  0  0  0
  2 51  1  0  0  0
  3  4  1  0  0  0
  3  7  1  0  0  0
  4  5  1  0  0  0
  4 12  2  0  0  0
  5  6  1  0  0  0
  5 11  1  0  0  0
  6  7  2  0  0  0
  7  8  1  0  0  0
  8  9  1  0  0  0
  8 10  2  0  0  0
  9 40  1  0  0  0
  9 52  1  0  0  0
 11 53  1  0  0  0
 11 54  1  0  0  0
 11 55  1  0  0  0
 12 13  1  0  0  0
 12 17  1  0  0  0
 13 14  1  0  0  0
 14 15  2  0  0  0
 14 56  1  0  0  0
 15 16  1  0  0  0
 16 17  2  0  0  0
 16 18  1  0  0  0
 18 19  1  0  0  0
 18 57  1  0  0  0
 19 20  2  0  0  0
 19 24  1  0  0  0
 20 21  1  0  0  0
 20 25  1  0  0  0
 21 22  2  0  0  0
 21 58  1  0  0  0
 22 23  1  0  0  0
 22 26  1  0  0  0
 23 24  2  0  0  0
 23 59  1  0  0  0
 24 60  1  0  0  0
 25 36  1  0  0  0
 26 27  1  0  0  0
 26 28  2  0  0  0
 27 29  1  0  0  0
 27 61  1  0  0  0
 29 30  1  0  0  0
 29 34  1  0  0  0
 29 62  1  0  0  0
 30 31  1  0  0  0
 30 63  1  0  0  0
 30 64  1  0  0  0
 31 32  1  0  0  0
 31 65  1  0  0  0
 31 66  1  0  0  0
 32 33  1  0  0  0
 32 35  1  0  0  0
 32 67  1  0  0  0
 33 34  1  0  0  0
 33 68  1  0  0  0
 33 69  1  0  0  0
 34 70  1  0  0  0
 34 71  1  0  0  0
 35 72  1  0  0  0
 35 73  1  0  0  0
 35 74  1  0  0  0
 36 37  1  0  0  0
 36 38  1  0  0  0
 36 39  1  0  0  0
 40 41  2  0  0  0
 40 45  1  0  0  0
 41 42  1  0  0  0
 41 48  1  0  0  0
 42 43  2  0  0  0
 42 75  1  0  0  0
 43 44  1  0  0  0
 43 76  1  0  0  0
 44 45  2  0  0  0
 44 77  1  0  0  0
 45 46  1  0  0  0
 46 47  1  0  0  0
 46 78  1  0  0  0
 46 79  1  0  0  0
 47 80  1  0  0  0
 47 81  1  0  0  0
 47 82  1  0  0  0
 48 49  1  0  0  0
 48 83  1  0  0  0
 48 84  1  0  0  0
 49 85  1  0  0  0
 49 86  1  0  0  0
 49 87  1  0  0  0
M  CHG  1  32   1
M  END
> <s_m_source_file>
../5ap7_ligand.sdf

> <i_m_source_file_index>
1

> <s_epik_input>
W0NIM11bQ0gyXWMxW2NIXVtjSF1bY0hdYyhbQ0gyXVtDSDNdKWMxW05IXUMoPU8pYzJubihbQ0gzXSljKGMyMyljNGMoW2NIXVtjSF0zKVtjSF1uYyhuNClbTkhdYzVjKE9DKEYpKEYpRilbY0hdYyhbY0hdW2NIXTUpQyg9TylbTkhdW0NASF02W0NIMl1bQ0gyXVtOQEgrXShbQ0gzXSlbQ0gyXVtDSDJdNg==

> <s_epik_cmdline>
J2VwaWtfYXBwJywgJy1pbWFlJywgJ2xpZ2FuZF9wcm8ubWFlJywgJy1vbWFlJywgJ2xpZ2FuZF9wcmVwLm1hZScsICctbXMnLCAnMScsICctcGgnLCAnNycsICctcGh0JywgJzAuNScsICctbnQn

> <r_lp_tautomer_probability>
1

> <r_epik_Ionization_Penalty>
  0.0049

> <r_epik_Ionization_Penalty_Charging>
  0.0049

> <r_epik_Ionization_Penalty_Neutral>
  0.0000

> <r_epik_State_Penalty>
 -0.0000

> <r_epik_Charging_Adjusted_Penalty>
0.00493320810848014

> <i_epik_Tot_Q>
1

> <i_epik_Tot_abs_Q>
1

$$$$
