5aph_ligand
                    3D
 Schrodinger Suite 2020-3.
 47 50  0  0  1  0            999 V2000
  -25.6650   12.5950  -15.7010 C   0  0  0  0  0  0
  -24.7230   13.3370  -15.0190 C   0  0  0  0  0  0
  -24.3830    7.8940  -18.3070 C   0  0  0  0  0  0
  -25.6380   11.2180  -15.6400 C   0  0  0  0  0  0
  -24.3980    8.7450  -17.2240 C   0  0  0  0  0  0
  -24.5420    6.5410  -18.1160 C   0  0  0  0  0  0
  -23.7470   12.7160  -14.2740 C   0  0  0  0  0  0
  -29.6720    6.7630  -16.7530 C   0  0  0  0  0  0
  -28.5850    8.8530  -16.2500 C   0  0  0  0  0  0
  -29.0680    6.1880  -15.6540 C   0  0  0  0  0  0
  -27.9750    8.2820  -15.1500 C   0  0  0  0  0  0
  -24.7480    6.8980  -15.7370 C   0  0  0  0  0  0
  -24.5780    8.2690  -15.9390 C   0  0  0  0  0  0
  -24.6460   10.5780  -14.9190 C   0  0  0  0  0  0
  -24.7250    6.0530  -16.8390 C   0  0  0  0  0  0
  -29.4250    8.0880  -17.0390 C   0  0  0  0  0  0
  -23.7210   11.3430  -14.2330 C   0  0  0  0  0  0
  -28.2100    6.9470  -14.8800 C   0  0  0  0  0  0
  -24.9240    6.3630  -14.3410 C   0  0  0  0  0  0
  -26.0460    4.1800  -14.7900 C   0  0  0  0  0  0
  -26.1730    4.4030  -16.2810 C   0  0  0  0  0  0
  -25.9760    5.3790  -13.9060 N   0  0  2  0  0  0
  -24.6000    9.1680  -14.8470 N   0  0  0  0  0  0
  -27.1080    7.2700  -12.5390 O   0  0  0  0  0  0
  -28.3590    5.1530  -13.0420 O   0  0  0  0  0  0
  -24.8550    4.6740  -16.7310 O   0  0  0  0  0  0
  -30.0210    8.6450  -18.1050 F   0  0  0  0  0  0
  -22.7400   10.7660  -13.5270 F   0  0  0  0  0  0
  -27.4370    6.1910  -13.4590 S   0  0  0  0  0  0
  -26.4322   13.0984  -16.2893 H   0  0  0  0  0  0
  -24.7521   14.4254  -15.0708 H   0  0  0  0  0  0
  -24.2455    8.2915  -19.3126 H   0  0  0  0  0  0
  -26.3977   10.6340  -16.1595 H   0  0  0  0  0  0
  -24.2653    9.8151  -17.3836 H   0  0  0  0  0  0
  -24.5235    5.8601  -18.9670 H   0  0  0  0  0  0
  -23.0086   13.3021  -13.7269 H   0  0  0  0  0  0
  -30.3365    6.1763  -17.3873 H   0  0  0  0  0  0
  -28.4055    9.8999  -16.4947 H   0  0  0  0  0  0
  -29.2651    5.1468  -15.3987 H   0  0  0  0  0  0
  -27.3214    8.8724  -14.5078 H   0  0  0  0  0  0
  -24.0079    5.8389  -14.0310 H   0  0  0  0  0  0
  -25.1208    7.1967  -13.6509 H   0  0  0  0  0  0
  -26.9146    3.6095  -14.4293 H   0  0  0  0  0  0
  -25.1247    3.6166  -14.5807 H   0  0  0  0  0  0
  -26.5832    3.4982  -16.7534 H   0  0  0  0  0  0
  -26.8466    5.2521  -16.4687 H   0  0  0  0  0  0
  -24.5809    8.7827  -13.8169 H   0  0  0  0  0  0
  1  2  2  0  0  0
  1  4  1  0  0  0
  1 30  1  0  0  0
  2  7  1  0  0  0
  2 31  1  0  0  0
  3  5  2  0  0  0
  3  6  1  0  0  0
  3 32  1  0  0  0
  4 14  2  0  0  0
  4 33  1  0  0  0
  5 13  1  0  0  0
  5 34  1  0  0  0
  6 15  2  0  0  0
  6 35  1  0  0  0
  7 17  2  0  0  0
  7 36  1  0  0  0
  8 10  2  0  0  0
  8 16  1  0  0  0
  8 37  1  0  0  0
  9 11  1  0  0  0
  9 16  2  0  0  0
  9 38  1  0  0  0
 10 18  1  0  0  0
 10 39  1  0  0  0
 11 18  2  0  0  0
 11 40  1  0  0  0
 12 13  2  0  0  0
 12 15  1  0  0  0
 12 19  1  0  0  0
 13 23  1  0  0  0
 14 17  1  0  0  0
 14 23  1  0  0  0
 15 26  1  0  0  0
 16 27  1  0  0  0
 17 28  1  0  0  0
 18 29  1  0  0  0
 19 22  1  0  0  0
 19 41  1  0  0  0
 19 42  1  0  0  0
 20 21  1  0  0  0
 20 22  1  0  0  0
 20 43  1  0  0  0
 20 44  1  0  0  0
 21 26  1  0  0  0
 21 45  1  0  0  0
 21 46  1  0  0  0
 22 29  1  0  0  0
 23 47  1  0  0  0
 24 29  2  0  0  0
 25 29  2  0  0  0
M  END
> <s_m_source_file>
../5aph_ligand.sdf

> <i_m_source_file_index>
1

> <s_epik_input>
RmMxW2NIXVtjSF1bY0hdW2NIXWMxW05IXWMyW2NIXVtjSF1bY0hdYyhjMjMpT1tDSDJdW0NIMl1OKFtDSDJdMylTKD1PKSg9TyljKFtjSF1bY0hdNClbY0hdW2NIXWM0Rg==

> <s_epik_cmdline>
J2VwaWtfYXBwJywgJy1pbWFlJywgJ2xpZ2FuZF9wcm8ubWFlJywgJy1vbWFlJywgJ2xpZ2FuZF9wcmVwLm1hZScsICctbXMnLCAnMScsICctcGgnLCAnNycsICctcGh0JywgJzAuNScsICctbnQn

> <r_lp_tautomer_probability>
1

> <r_epik_Ionization_Penalty>
  0.0000

> <r_epik_Ionization_Penalty_Charging>
  0.0000

> <r_epik_Ionization_Penalty_Neutral>
  0.0000

> <r_epik_State_Penalty>
 -0.0000

> <r_epik_Charging_Adjusted_Penalty>
0

> <i_epik_Tot_Q>
0

> <i_epik_Tot_abs_Q>
0

$$$$
