5apj_ligand
                    3D
 Schrodinger Suite 2020-3.
 52 55  0  0  1  0            999 V2000
  -29.9910    5.0520  -15.8440 C   0  0  0  0  0  0
  -25.0690   14.2790  -15.7220 C   0  0  0  0  0  0
  -29.8880    6.2750  -16.4760 C   0  0  0  0  0  0
  -24.5600    7.3800  -17.5880 C   0  0  0  0  0  0
  -24.6960    6.0070  -17.5900 C   0  0  0  0  0  0
  -25.8930   13.6180  -16.6070 C   0  0  0  0  0  0
  -29.2240    4.7560  -14.7440 C   0  0  0  0  0  0
  -24.3050   13.5810  -14.8100 C   0  0  0  0  0  0
  -24.4940    7.3520  -15.1920 C   0  0  0  0  0  0
  -28.2040    6.9490  -14.9200 C   0  0  0  0  0  0
  -25.1780   11.5600  -15.6680 C   0  0  0  0  0  0
  -24.6210    5.9870  -15.2020 C   0  0  0  0  0  0
  -29.0040    7.2310  -16.0130 C   0  0  0  0  0  0
  -24.4610    8.0440  -16.3840 C   0  0  0  0  0  0
  -24.7650    5.3050  -16.4030 C   0  0  0  0  0  0
  -25.9470   12.2460  -16.5760 C   0  0  0  0  0  0
  -28.3450    5.7220  -14.3010 C   0  0  0  0  0  0
  -24.3660   12.2090  -14.7700 C   0  0  0  0  0  0
  -25.2950   10.1150  -15.6110 C   0  0  0  0  0  0
  -24.7390    5.3050  -13.8940 C   0  0  0  0  0  0
  -26.0430    3.3220  -14.3970 C   0  0  0  0  0  0
  -26.1240    3.4100  -15.9180 C   0  0  0  0  0  0
  -28.8950    8.5420  -16.7080 C   0  0  0  0  0  0
  -26.0810    4.7370  -13.9930 N   0  0  1  0  0  0
  -24.3400    9.4320  -16.3360 N   0  0  0  0  0  0
  -26.2150    9.6780  -14.9220 O   0  0  0  0  0  0
  -27.9150    4.2090  -12.2130 O   0  0  0  0  0  0
  -26.9640    6.5800  -12.2740 O   0  0  0  0  0  0
  -24.8920    3.9090  -16.4660 O   0  0  0  0  0  0
  -26.7240   11.5760  -17.4340 F   0  0  0  0  0  0
  -28.7130    9.5970  -15.8670 F   0  0  0  0  0  0
  -27.8270    8.5440  -17.5440 F   0  0  0  0  0  0
  -29.9820    8.8570  -17.4690 F   0  0  0  0  0  0
  -27.3010    5.3220  -12.9240 S   0  0  0  0  0  0
  -23.4120   11.3360  -13.6400 Cl  0  0  0  0  0  0
  -30.6924    4.3093  -16.2242 H   0  0  0  0  0  0
  -25.0203   15.3677  -15.7430 H   0  0  0  0  0  0
  -30.5084    6.4881  -17.3465 H   0  0  0  0  0  0
  -24.5312    7.9329  -18.5269 H   0  0  0  0  0  0
  -24.7495    5.4713  -18.5378 H   0  0  0  0  0  0
  -26.4948   14.1775  -17.3232 H   0  0  0  0  0  0
  -29.3069    3.7932  -14.2397 H   0  0  0  0  0  0
  -23.6529   14.1179  -14.1211 H   0  0  0  0  0  0
  -24.4194    7.8879  -14.2458 H   0  0  0  0  0  0
  -27.4797    7.6776  -14.5559 H   0  0  0  0  0  0
  -23.9476    4.5464  -13.8033 H   0  0  0  0  0  0
  -24.6340    6.0428  -13.0849 H   0  0  0  0  0  0
  -26.8999    2.7465  -14.0169 H   0  0  0  0  0  0
  -25.1075    2.8207  -14.1080 H   0  0  0  0  0  0
  -26.3179    2.4100  -16.3333 H   0  0  0  0  0  0
  -26.9403    4.0900  -16.2030 H   0  0  0  0  0  0
  -23.5119    9.9304  -16.8612 H   0  0  0  0  0  0
  1  3  2  0  0  0
  1  7  1  0  0  0
  1 36  1  0  0  0
  2  6  2  0  0  0
  2  8  1  0  0  0
  2 37  1  0  0  0
  3 13  1  0  0  0
  3 38  1  0  0  0
  4  5  2  0  0  0
  4 14  1  0  0  0
  4 39  1  0  0  0
  5 15  1  0  0  0
  5 40  1  0  0  0
  6 16  1  0  0  0
  6 41  1  0  0  0
  7 17  2  0  0  0
  7 42  1  0  0  0
  8 18  2  0  0  0
  8 43  1  0  0  0
  9 12  1  0  0  0
  9 14  2  0  0  0
  9 44  1  0  0  0
 10 13  2  0  0  0
 10 17  1  0  0  0
 10 45  1  0  0  0
 11 16  2  0  0  0
 11 18  1  0  0  0
 11 19  1  0  0  0
 12 15  2  0  0  0
 12 20  1  0  0  0
 13 23  1  0  0  0
 14 25  1  0  0  0
 15 29  1  0  0  0
 16 30  1  0  0  0
 17 34  1  0  0  0
 18 35  1  0  0  0
 19 25  1  0  0  0
 19 26  2  0  0  0
 20 24  1  0  0  0
 20 46  1  0  0  0
 20 47  1  0  0  0
 21 22  1  0  0  0
 21 24  1  0  0  0
 21 48  1  0  0  0
 21 49  1  0  0  0
 22 29  1  0  0  0
 22 50  1  0  0  0
 22 51  1  0  0  0
 23 31  1  0  0  0
 23 32  1  0  0  0
 23 33  1  0  0  0
 24 34  1  0  0  0
 25 52  1  0  0  0
 27 34  2  0  0  0
 28 34  2  0  0  0
M  END
> <s_m_source_file>
../5apj_ligand.sdf

> <i_m_source_file_index>
1

> <s_epik_input>
RkMoRikoRiljMVtjSF1bY0hdW2NIXWMoW2NIXTEpUyg9TykoPU8pTihbQ0gyXTIpW0NIMl1bQ0gyXU9jKGMyMylbY0hdW2NIXWMoW2NIXTMpW05IXUMoPU8pYzRjKEYpW2NIXVtjSF1bY0hdYzRDbA==

> <s_epik_cmdline>
J2VwaWtfYXBwJywgJy1pbWFlJywgJ2xpZ2FuZF9wcm8ubWFlJywgJy1vbWFlJywgJ2xpZ2FuZF9wcmVwLm1hZScsICctbXMnLCAnMScsICctcGgnLCAnNycsICctcGh0JywgJzAuNScsICctbnQn

> <r_lp_tautomer_probability>
1

> <r_epik_Ionization_Penalty>
  0.0000

> <r_epik_Ionization_Penalty_Charging>
  0.0000

> <r_epik_Ionization_Penalty_Neutral>
  0.0000

> <r_epik_State_Penalty>
 -0.0000

> <r_epik_Charging_Adjusted_Penalty>
0

> <i_epik_Tot_Q>
0

> <i_epik_Tot_abs_Q>
0

$$$$
