5apr_ligand
                    3D
 Schrodinger Suite 2020-3.
107109  0  0  1  0            999 V2000
   37.2540   72.3440  102.0190 N   0  3  0  0  0  0
   37.5550   71.0520  101.3940 C   0  0  2  0  0  0
   38.7290   70.3720  102.0830 C   0  0  0  0  0  0
   39.6710   71.0540  102.5440 O   0  0  0  0  0  0
   37.7740   71.4190   99.9290 C   0  0  0  0  0  0
   37.5010   72.8660   99.7250 C   0  0  0  0  0  0
   37.4700   73.4840  101.1120 C   0  0  0  0  0  0
   38.7150   69.0470  102.1650 N   0  0  0  0  0  0
   39.7790   68.2350  102.7810 C   0  0  2  0  0  0
   40.6510   67.5130  101.7640 C   0  0  0  0  0  0
   40.2240   67.1610  100.6570 O   0  0  0  0  0  0
   39.1980   67.2010  103.7730 C   0  0  0  0  0  0
   38.8180   67.8360  105.0840 C   0  0  0  0  0  0
   39.8080   68.1680  106.0170 C   0  0  0  0  0  0
   37.4950   68.1180  105.3750 C   0  0  0  0  0  0
   39.4720   68.7740  107.2250 C   0  0  0  0  0  0
   37.1310   68.7290  106.5770 C   0  0  0  0  0  0
   38.1290   69.0560  107.5070 C   0  0  0  0  0  0
   41.9030   67.2330  102.1020 N   0  0  0  0  0  0
   42.7440   66.4800  101.1350 C   0  0  2  0  0  0
   43.7870   65.7310  101.9890 C   0  0  0  0  0  0
   44.8680   66.2540  102.2690 O   0  0  0  0  0  0
   43.2690   67.2700   99.9670 C   0  0  0  0  0  0
   43.9200   66.2070   98.6290 S   0  0  0  0  0  0
   43.3300   64.5490  102.3590 N   0  0  0  0  0  0
   43.9210   63.5140  103.1770 C   0  0  1  0  0  0
   43.3850   63.5540  104.5890 C   0  0  0  0  0  0
   42.8780   64.9380  105.0710 C   0  0  0  0  0  0
   41.7430   64.8700  106.1190 C   0  0  0  0  0  0
   44.0440   65.7060  105.7490 C   0  0  0  0  0  0
   44.2940   62.2080  102.4780 C   0  0  1  0  0  0
   43.1140   61.5250  102.0020 O   0  0  0  0  0  0
   45.2250   62.3060  101.2740 C   0  0  0  0  0  0
   46.6270   62.6440  101.7960 C   0  0  0  0  0  0
   46.8870   63.8050  102.0020 O   0  0  0  0  0  0
   47.4500   61.6020  101.7350 N   0  0  0  0  0  0
   48.9070   61.5880  101.8500 C   0  0  2  0  0  0
   49.5850   62.4250  100.7520 C   0  0  0  0  0  0
   50.3880   63.3290  101.0150 O   0  0  0  0  0  0
   49.4180   60.1510  101.8840 C   0  0  0  0  0  0
   50.0260   59.5220  103.1130 C   0  0  0  0  0  0
   51.1000   58.5090  102.6790 C   0  0  0  0  0  0
   50.7010   60.5300  104.0440 C   0  0  0  0  0  0
   49.2030   62.0860   99.5390 N   0  0  0  0  0  0
   49.7080   62.7550   98.3260 C   0  0  0  0  0  0
   48.4720   63.1830   97.5260 C   0  0  0  0  0  0
   47.7280   62.3670   96.9700 O   0  0  0  0  0  0
   48.3130   64.4940   97.5350 N   0  0  0  0  0  0
   47.1800   65.1100   96.8420 C   0  0  0  0  0  0
   46.7380   66.3670   97.5730 C   0  0  0  0  0  0
   45.9000   66.0760   99.1280 S   0  0  0  0  0  0
   36.2004   72.3621  102.3345 H   0  0  0  0  0  0
   37.9019   72.4867  102.8964 H   0  0  0  0  0  0
   36.7403   70.3216  101.5067 H   0  0  0  0  0  0
   38.8154   71.2027   99.6486 H   0  0  0  0  0  0
   37.0940   70.8284   99.2974 H   0  0  0  0  0  0
   38.2999   73.3068   99.1107 H   0  0  0  0  0  0
   36.5351   72.9883   99.2131 H   0  0  0  0  0  0
   36.6442   74.2022  101.2227 H   0  0  0  0  0  0
   38.4208   73.9770  101.3627 H   0  0  0  0  0  0
   37.8306   68.5572  101.7315 H   0  0  0  0  0  0
   40.3959   68.9884  103.2926 H   0  0  0  0  0  0
   38.2981   66.7414  103.3383 H   0  0  0  0  0  0
   39.9484   66.4216  103.9716 H   0  0  0  0  0  0
   40.8527   67.9498  105.7954 H   0  0  0  0  0  0
   36.7218   67.8582  104.6520 H   0  0  0  0  0  0
   40.2489   69.0273  107.9464 H   0  0  0  0  0  0
   36.0848   68.9490  106.7897 H   0  0  0  0  0  0
   37.8591   69.5303  108.4506 H   0  0  0  0  0  0
   42.3224   67.5437  103.0703 H   0  0  0  0  0  0
   42.1089   65.7863  100.5645 H   0  0  0  0  0  0
   42.4589   67.8832   99.5453 H   0  0  0  0  0  0
   44.0864   67.9242  100.3045 H   0  0  0  0  0  0
   42.3267   64.4062  101.9312 H   0  0  0  0  0  0
   44.9635   63.8334  103.3222 H   0  0  0  0  0  0
   42.5335   62.8633  104.6776 H   0  0  0  0  0  0
   44.1767   63.2519  105.2904 H   0  0  0  0  0  0
   42.4882   65.4336  104.1697 H   0  0  0  0  0  0
   40.8826   64.3329  105.6933 H   0  0  0  0  0  0
   41.4381   65.8900  106.3960 H   0  0  0  0  0  0
   42.1010   64.3387  107.0132 H   0  0  0  0  0  0
   44.8870   65.7869  105.0470 H   0  0  0  0  0  0
   44.3671   65.1621  106.6489 H   0  0  0  0  0  0
   43.7042   66.7133  106.0316 H   0  0  0  0  0  0
   44.7945   61.6279  103.2673 H   0  0  0  0  0  0
   42.2782   61.3271  102.6892 H   0  0  0  0  0  0
   45.2368   61.3442  100.7404 H   0  0  0  0  0  0
   44.8676   63.0963  100.5975 H   0  0  0  0  0  0
   46.9017   60.6616  101.5765 H   0  0  0  0  0  0
   49.1264   62.0678  102.8152 H   0  0  0  0  0  0
   48.5919   59.4625  101.6527 H   0  0  0  0  0  0
   50.2172   60.0283  101.1382 H   0  0  0  0  0  0
   49.1850   59.0621  103.6526 H   0  0  0  0  0  0
   50.6508   57.7644  102.0054 H   0  0  0  0  0  0
   51.5063   58.0024  103.5669 H   0  0  0  0  0  0
   51.9106   59.0361  102.1545 H   0  0  0  0  0  0
   49.9620   61.2737  104.3768 H   0  0  0  0  0  0
   51.5154   61.0375  103.5063 H   0  0  0  0  0  0
   51.1111   60.0038  104.9186 H   0  0  0  0  0  0
   48.4752   61.2658   99.4522 H   0  0  0  0  0  0
   50.3141   63.6268   98.6135 H   0  0  0  0  0  0
   50.3274   62.0516   97.7502 H   0  0  0  0  0  0
   49.0399   65.1240   98.0686 H   0  0  0  0  0  0
   47.4776   65.3756   95.8169 H   0  0  0  0  0  0
   46.3409   64.3996   96.8078 H   0  0  0  0  0  0
   47.6172   66.9885   97.7983 H   0  0  0  0  0  0
   46.0409   66.9342   96.9386 H   0  0  0  0  0  0
  1  2  1  0  0  0
  1  7  1  0  0  0
  1 52  1  0  0  0
  1 53  1  0  0  0
  2  5  1  0  0  0
  2  3  1  0  0  0
  2 54  1  0  0  0
  3  4  2  0  0  0
  3  8  1  0  0  0
  5  6  1  0  0  0
  5 55  1  0  0  0
  5 56  1  0  0  0
  6  7  1  0  0  0
  6 57  1  0  0  0
  6 58  1  0  0  0
  7 59  1  0  0  0
  7 60  1  0  0  0
  8  9  1  0  0  0
  8 61  1  0  0  0
  9 10  1  0  0  0
  9 12  1  0  0  0
  9 62  1  0  0  0
 10 11  2  0  0  0
 10 19  1  0  0  0
 12 13  1  0  0  0
 12 63  1  0  0  0
 12 64  1  0  0  0
 13 15  2  0  0  0
 13 14  1  0  0  0
 14 16  2  0  0  0
 14 65  1  0  0  0
 15 17  1  0  0  0
 15 66  1  0  0  0
 16 18  1  0  0  0
 16 67  1  0  0  0
 17 18  2  0  0  0
 17 68  1  0  0  0
 18 69  1  0  0  0
 19 20  1  0  0  0
 19 70  1  0  0  0
 20 21  1  0  0  0
 20 23  1  0  0  0
 20 71  1  0  0  0
 21 22  2  0  0  0
 21 25  1  0  0  0
 23 24  1  0  0  0
 23 72  1  0  0  0
 23 73  1  0  0  0
 24 51  1  0  0  0
 25 26  1  0  0  0
 25 74  1  0  0  0
 26 31  1  0  0  0
 26 27  1  0  0  0
 26 75  1  0  0  0
 27 28  1  0  0  0
 27 76  1  0  0  0
 27 77  1  0  0  0
 28 30  1  0  0  0
 28 29  1  0  0  0
 28 78  1  0  0  0
 29 79  1  0  0  0
 29 80  1  0  0  0
 29 81  1  0  0  0
 30 82  1  0  0  0
 30 83  1  0  0  0
 30 84  1  0  0  0
 31 33  1  0  0  0
 31 32  1  0  0  0
 31 85  1  0  0  0
 32 86  1  0  0  0
 33 34  1  0  0  0
 33 87  1  0  0  0
 33 88  1  0  0  0
 34 35  2  0  0  0
 34 36  1  0  0  0
 36 37  1  0  0  0
 36 89  1  0  0  0
 37 38  1  0  0  0
 37 40  1  0  0  0
 37 90  1  0  0  0
 38 39  2  0  0  0
 38 44  1  0  0  0
 40 41  1  0  0  0
 40 91  1  0  0  0
 40 92  1  0  0  0
 41 43  1  0  0  0
 41 42  1  0  0  0
 41 93  1  0  0  0
 42 94  1  0  0  0
 42 95  1  0  0  0
 42 96  1  0  0  0
 43 97  1  0  0  0
 43 98  1  0  0  0
 43 99  1  0  0  0
 44 45  1  0  0  0
 44100  1  0  0  0
 45 46  1  0  0  0
 45101  1  0  0  0
 45102  1  0  0  0
 46 47  2  0  0  0
 46 48  1  0  0  0
 48 49  1  0  0  0
 48103  1  0  0  0
 49 50  1  0  0  0
 49104  1  0  0  0
 49105  1  0  0  0
 50 51  1  0  0  0
 50106  1  0  0  0
 50107  1  0  0  0
M  CHG  1   1   1
M  END
> <s_m_source_file>
../5apr_ligand.sdf

> <i_m_source_file_index>
1

> <s_epik_input>
W0NIMl0xW0NIMl1bQ0gyXVtOSDIrXVtDQEBIXTFDKD1PKVtOSF1bQ0BASF0oW0NIMl1jMltjSF1bY0hdW2NIXVtjSF1bY0hdMilDKD1PKVtOSF1bQ0BASF0zQyg9TylbTkhdW0NAQEhdKFtDSDJdW0NIXShbQ0gzXSlbQ0gzXSlbQ0BASF0oW09IXSlbQ0gyXUMoPU8pW05IXVtDQEBIXShbQ0gyXVtDSF0oW0NIM10pW0NIM10pQyg9TylbTkhdW0NIMl1DKD1PKVtOSF1bQ0gyXVtDSDJdU1NbQ0gyXTM=

> <s_epik_cmdline>
J2VwaWtfYXBwJywgJy1pbWFlJywgJ2xpZ2FuZF9wcm8ubWFlJywgJy1vbWFlJywgJ2xpZ2FuZF9wcmVwLm1hZScsICctbXMnLCAnMScsICctcGgnLCAnNycsICctcGh0JywgJzAuNScsICctbnQn

> <r_epik_Ionization_Penalty>
  0.0428

> <r_epik_Ionization_Penalty_Charging>
  0.0428

> <r_epik_Ionization_Penalty_Neutral>
  0.0000

> <r_epik_State_Penalty>
  0.0362

> <r_epik_Charging_Adjusted_Penalty>
0.0790190607759434

> <i_epik_Tot_Q>
1

> <i_epik_Tot_abs_Q>
1

$$$$
