5aut_ligand
                    3D
 Schrodinger Suite 2020-3.
 33 35  0  0  1  0            999 V2000
  -22.8380    2.1830  -11.4640 C   0  0  0  0  0  0
  -23.5690    1.8130  -12.5960 C   0  0  0  0  0  0
  -24.8190    2.3330  -12.8770 C   0  0  0  0  0  0
  -25.3420    3.2780  -12.0160 C   0  0  0  0  0  0
  -24.6320    3.6900  -10.9040 C   0  0  0  0  0  0
  -25.2700    4.6340  -10.1140 C   0  0  0  0  0  0
  -24.6730    5.1240   -8.9690 C   0  0  0  0  0  0
  -23.4210    4.6300   -8.6360 C   0  0  0  0  0  0
  -21.6150    1.6350  -11.2220 N   0  0  0  0  0  0
  -21.1990    3.2540   -8.7280 S   0  0  0  0  0  0
  -22.7690    3.6770   -9.4050 C   0  0  0  0  0  0
  -23.3660    3.1660  -10.5860 C   0  0  0  0  0  0
  -21.3590    0.2850  -11.2370 C   0  0  0  0  0  0
  -22.2670   -0.7250  -11.5890 C   0  0  0  0  0  0
  -21.9390   -2.0800  -11.5760 C   0  0  0  0  0  0
  -20.6560   -2.4720  -11.2260 C   0  0  0  0  0  0
  -19.7310   -1.4960  -10.8710 C   0  0  0  0  0  0
  -20.0760   -0.1370  -10.8780 C   0  0  0  0  0  0
  -20.2090    3.2650   -9.8840 O   0  0  0  0  0  0
  -21.2780    1.8680   -8.0630 O   0  5  0  0  0  0
  -20.8320    4.3250   -7.7010 O   0  0  0  0  0  0
  -23.1371    1.0863  -13.2841 H   0  0  0  0  0  0
  -25.3768    2.0059  -13.7545 H   0  0  0  0  0  0
  -26.3254    3.7035  -12.2157 H   0  0  0  0  0  0
  -26.2577    4.9949  -10.4009 H   0  0  0  0  0  0
  -25.1681    5.8719   -8.3496 H   0  0  0  0  0  0
  -22.9311    5.0041   -7.7371 H   0  0  0  0  0  0
  -20.7561    2.2844  -10.9971 H   0  0  0  0  0  0
  -23.2753   -0.4370  -11.8863 H   0  0  0  0  0  0
  -22.6874   -2.8273  -11.8396 H   0  0  0  0  0  0
  -20.3774   -3.5258  -11.2290 H   0  0  0  0  0  0
  -18.7223   -1.7921  -10.5829 H   0  0  0  0  0  0
  -19.3285    0.6052  -10.5978 H   0  0  0  0  0  0
  1  2  2  0  0  0
  1  9  1  0  0  0
  1 12  1  0  0  0
  2  3  1  0  0  0
  2 22  1  0  0  0
  3  4  2  0  0  0
  3 23  1  0  0  0
  4  5  1  0  0  0
  4 24  1  0  0  0
  5  6  1  0  0  0
  5 12  2  0  0  0
  6  7  2  0  0  0
  6 25  1  0  0  0
  7  8  1  0  0  0
  7 26  1  0  0  0
  8 11  2  0  0  0
  8 27  1  0  0  0
  9 13  1  0  0  0
  9 28  1  0  0  0
 10 11  1  0  0  0
 10 19  2  0  0  0
 10 20  1  0  0  0
 10 21  2  0  0  0
 11 12  1  0  0  0
 13 14  2  0  0  0
 13 18  1  0  0  0
 14 15  1  0  0  0
 14 29  1  0  0  0
 15 16  2  0  0  0
 15 30  1  0  0  0
 16 17  1  0  0  0
 16 31  1  0  0  0
 17 18  2  0  0  0
 17 32  1  0  0  0
 18 33  1  0  0  0
M  CHG  1  20  -1
M  END
> <s_m_source_file>
../5aut_ligand.sdf

> <i_m_source_file_index>
1

> <s_epik_input>
W2NIXTFbY0hdW2NIXWMoUyg9TykoPU8pW09IXSljKGMxMiljKFtjSF1bY0hdW2NIXTIpW05IXWMzW2NIXVtjSF1bY0hdW2NIXVtjSF0z

> <s_epik_cmdline>
J2VwaWtfYXBwJywgJy1pbWFlJywgJ2xpZ2FuZF9wcm8ubWFlJywgJy1vbWFlJywgJ2xpZ2FuZF9wcmVwLm1hZScsICctbXMnLCAnMScsICctcGgnLCAnNycsICctcGh0JywgJzAuNScsICctbnQn

> <r_lp_tautomer_probability>
1

> <r_epik_Ionization_Penalty>
  0.0000

> <r_epik_Ionization_Penalty_Charging>
  0.0000

> <r_epik_Ionization_Penalty_Neutral>
  0.0000

> <r_epik_State_Penalty>
 -0.0000

> <r_epik_Charging_Adjusted_Penalty>
1.09818092811241e-05

> <i_epik_Tot_Q>
-1

> <i_epik_Tot_abs_Q>
1

$$$$
