5auu_ligand
                    3D
 Schrodinger Suite 2020-3.
 31 33  0  0  1  0            999 V2000
  -25.5430    5.6490   -9.0540 C   0  0  0  0  0  0
  -27.6330    6.6680   -9.3400 O   0  0  0  0  0  0
  -26.7200    5.7720   -9.7690 C   0  0  0  0  0  0
  -26.1300    3.3010  -12.3980 O   0  0  0  0  0  0
  -26.9480    4.9930  -10.9000 C   0  0  0  0  0  0
  -24.0310    2.2840  -11.9560 O   0  0  0  0  0  0
  -25.9720    4.0870  -11.2980 C   0  0  0  0  0  0
  -23.4340    4.6280   -8.7580 O   0  0  0  0  0  0
  -24.7790    3.9470  -10.5900 C   0  0  0  0  0  0
  -18.6310    1.5780   -7.1890 O   0  0  0  0  0  0
  -24.5850    4.7380   -9.4630 C   0  0  0  0  0  0
  -18.1500    3.8050   -5.7400 O   0  0  0  0  0  0
  -23.8260    3.0210  -10.9870 C   0  0  0  0  0  0
  -22.6780    2.8670  -10.2150 C   0  0  0  0  0  0
  -22.5200    3.6940   -9.1060 C   0  0  0  0  0  0
  -21.4070    3.6910   -8.2630 C   0  0  0  0  0  0
  -20.5690    2.5920   -8.1680 C   0  0  0  0  0  0
  -19.4830    2.6430   -7.3070 C   0  0  0  0  0  0
  -19.2400    3.7920   -6.5450 C   0  0  0  0  0  0
  -20.0780    4.8950   -6.6330 C   0  0  0  0  0  0
  -21.1660    4.8300   -7.4950 C   0  0  0  0  0  0
  -25.3706    6.2666   -8.1725 H   0  0  0  0  0  0
  -27.4311    7.2727   -8.4436 H   0  0  0  0  0  0
  -27.0515    3.3691  -12.9949 H   0  0  0  0  0  0
  -27.8757    5.0918  -11.4636 H   0  0  0  0  0  0
  -18.8051    0.6663   -7.7793 H   0  0  0  0  0  0
  -17.4975    2.9212   -5.6834 H   0  0  0  0  0  0
  -21.9253    2.1213  -10.4710 H   0  0  0  0  0  0
  -20.7607    1.6986   -8.7623 H   0  0  0  0  0  0
  -19.8874    5.7899   -6.0407 H   0  0  0  0  0  0
  -21.8413    5.6821   -7.5721 H   0  0  0  0  0  0
  1  3  2  0  0  0
  1 11  1  0  0  0
  1 22  1  0  0  0
  2  3  1  0  0  0
  2 23  1  0  0  0
  3  5  1  0  0  0
  4  7  1  0  0  0
  4 24  1  0  0  0
  5  7  2  0  0  0
  5 25  1  0  0  0
  6 13  2  0  0  0
  7  9  1  0  0  0
  8 11  1  0  0  0
  8 15  1  0  0  0
  9 11  2  0  0  0
  9 13  1  0  0  0
 10 18  1  0  0  0
 10 26  1  0  0  0
 12 19  1  0  0  0
 12 27  1  0  0  0
 13 14  1  0  0  0
 14 15  2  0  0  0
 14 28  1  0  0  0
 15 16  1  0  0  0
 16 17  2  0  0  0
 16 21  1  0  0  0
 17 18  1  0  0  0
 17 29  1  0  0  0
 18 19  2  0  0  0
 19 20  1  0  0  0
 20 21  2  0  0  0
 20 30  1  0  0  0
 21 31  1  0  0  0
M  END
> <s_m_source_file>
../5auu_ligand.sdf

> <i_m_source_file_index>
1

> <s_epik_input>
W09IXWMxW2NIXWMoW09IXSlbY0hdYyhjMTIpb2MoW2NIXWMyPU8pLWMzW2NIXWMoW09IXSljKFtPSF0pW2NIXVtjSF0z

> <s_epik_cmdline>
J2VwaWtfYXBwJywgJy1pbWFlJywgJ2xpZ2FuZF9wcm8ubWFlJywgJy1vbWFlJywgJ2xpZ2FuZF9wcmVwLm1hZScsICctbXMnLCAnMScsICctcGgnLCAnNycsICctcGh0JywgJzAuNScsICctbnQn

> <r_lp_tautomer_probability>
0.999999999999776

> <r_epik_Ionization_Penalty>
  0.0508

> <r_epik_Ionization_Penalty_Charging>
  0.0000

> <r_epik_Ionization_Penalty_Neutral>
  0.0508

> <r_epik_State_Penalty>
  0.0342

> <r_epik_Charging_Adjusted_Penalty>
0.0342161590699068

> <i_epik_Tot_Q>
0

> <i_epik_Tot_abs_Q>
0

$$$$
