5auw_ligand
                    3D
 Schrodinger Suite 2020-3.
 32 34  0  0  1  0            999 V2000
  -26.7300    4.7500  -11.0840 C   0  0  0  0  0  0
  -25.7410    3.8800  -11.5080 C   0  0  0  0  0  0
  -24.5620    3.7100  -10.7820 C   0  0  0  0  0  0
  -24.4030    4.4310   -9.5980 C   0  0  0  0  0  0
  -25.3860    5.3080   -9.1630 C   0  0  0  0  0  0
  -26.5400    5.4630   -9.9130 C   0  0  0  0  0  0
  -23.5820    2.8290  -11.2010 C   0  0  0  0  0  0
  -22.4620    2.6930  -10.3950 C   0  0  0  0  0  0
  -22.2890    3.4280   -9.2180 C   0  0  0  0  0  0
  -21.1970    3.4200   -8.3430 C   0  0  0  0  0  0
  -20.9550    4.6010   -7.6540 C   0  0  0  0  0  0
  -19.9040    4.7020   -6.7580 C   0  0  0  0  0  0
  -19.0940    3.5940   -6.5600 C   0  0  0  0  0  0
  -19.3310    2.3940   -7.2440 C   0  0  0  0  0  0
  -20.3880    2.3170   -8.1390 C   0  0  0  0  0  0
  -23.2700    4.3080   -8.8550 O   0  0  0  0  0  0
  -23.7120    2.1560  -12.2240 O   0  0  0  0  0  0
  -18.5270    1.3050   -7.0250 O   0  0  0  0  0  0
  -18.0560    3.6570   -5.7070 O   0  0  0  0  0  0
  -21.4990    1.8120  -10.7950 O   0  0  0  0  0  0
  -27.5000    6.3040   -9.4850 O   0  0  0  0  0  0
  -25.8940    3.1680  -12.6590 O   0  0  0  0  0  0
  -27.6451    4.8720  -11.6636 H   0  0  0  0  0  0
  -25.2513    5.8702   -8.2389 H   0  0  0  0  0  0
  -21.6023    5.4619   -7.8210 H   0  0  0  0  0  0
  -19.7176    5.6317   -6.2204 H   0  0  0  0  0  0
  -20.5803    1.3903   -8.6797 H   0  0  0  0  0  0
  -17.6905    1.3730   -6.3139 H   0  0  0  0  0  0
  -17.8503    4.5882   -5.1588 H   0  0  0  0  0  0
  -21.6335    1.2330  -11.7206 H   0  0  0  0  0  0
  -28.4200    6.4338  -10.0738 H   0  0  0  0  0  0
  -26.8114    3.2780  -13.2560 H   0  0  0  0  0  0
  1  2  2  0  0  0
  1  6  1  0  0  0
  1 23  1  0  0  0
  2  3  1  0  0  0
  2 22  1  0  0  0
  3  4  2  0  0  0
  3  7  1  0  0  0
  4  5  1  0  0  0
  4 16  1  0  0  0
  5  6  2  0  0  0
  5 24  1  0  0  0
  6 21  1  0  0  0
  7  8  1  0  0  0
  7 17  2  0  0  0
  8  9  2  0  0  0
  8 20  1  0  0  0
  9 10  1  0  0  0
  9 16  1  0  0  0
 10 11  2  0  0  0
 10 15  1  0  0  0
 11 12  1  0  0  0
 11 25  1  0  0  0
 12 13  2  0  0  0
 12 26  1  0  0  0
 13 14  1  0  0  0
 13 19  1  0  0  0
 14 15  2  0  0  0
 14 18  1  0  0  0
 15 27  1  0  0  0
 18 28  1  0  0  0
 19 29  1  0  0  0
 20 30  1  0  0  0
 21 31  1  0  0  0
 22 32  1  0  0  0
M  END
> <s_m_source_file>
../5auw_ligand.sdf

> <i_m_source_file_index>
1

> <s_epik_input>
W09IXWMxW2NIXWMoW09IXSlbY0hdYyhjMTIpb2MoYyhjMj1PKVtPSF0pLWMzW2NIXVtjSF1jKFtPSF0pYyhbY0hdMylbT0hd

> <s_epik_cmdline>
J2VwaWtfYXBwJywgJy1pbWFlJywgJ2xpZ2FuZF9wcm8ubWFlJywgJy1vbWFlJywgJ2xpZ2FuZF9wcmVwLm1hZScsICctbXMnLCAnMScsICctcGgnLCAnNycsICctcGh0JywgJzAuNScsICctbnQn

> <r_lp_tautomer_probability>
0.999999999999776

> <r_epik_Ionization_Penalty>
  0.0466

> <r_epik_Ionization_Penalty_Charging>
  0.0000

> <r_epik_Ionization_Penalty_Neutral>
  0.0466

> <r_epik_State_Penalty>
  0.0262

> <r_epik_Charging_Adjusted_Penalty>
0.0262048054598102

> <i_epik_Tot_Q>
0

> <i_epik_Tot_abs_Q>
0

$$$$
