5aux_ligand
                    3D
 Schrodinger Suite 2020-3.
 31 33  0  0  1  0            999 V2000
  -20.1370   -1.1610  -12.1300 C   0  0  0  0  0  0
  -21.2240   -0.8120  -12.9270 C   0  0  0  0  0  0
  -22.0420    0.2780  -12.6170 C   0  0  0  0  0  0
  -21.7610    1.0040  -11.4620 C   0  0  0  0  0  0
  -20.6830    0.6580  -10.6530 C   0  0  0  0  0  0
  -19.8670   -0.4180  -10.9850 C   0  0  0  0  0  0
  -23.1390    0.6160  -13.4030 C   0  0  0  0  0  0
  -23.9480    1.6630  -12.9730 C   0  0  0  0  0  0
  -23.6610    2.4130  -11.8280 C   0  0  0  0  0  0
  -24.4190    3.4290  -11.2340 C   0  0  0  0  0  0
  -25.5600    3.9720  -11.8120 C   0  0  0  0  0  0
  -26.2850    4.9510  -11.1400 C   0  0  0  0  0  0
  -25.8830    5.3780   -9.8810 C   0  0  0  0  0  0
  -24.7540    4.8270   -9.2770 C   0  0  0  0  0  0
  -24.0310    3.8540   -9.9640 C   0  0  0  0  0  0
  -22.5590    2.0570  -11.1050 O   0  0  0  0  0  0
  -23.4170   -0.0120  -14.4290 O   0  0  0  0  0  0
  -26.6140    6.3300   -9.2490 O   0  0  0  0  0  0
  -25.0400    1.9570  -13.7340 O   0  0  0  0  0  0
  -18.8130   -0.7410  -10.1830 O   0  0  0  0  0  0
  -21.5200   -1.5090  -14.0590 O   0  0  0  0  0  0
  -19.5046   -2.0068  -12.4000 H   0  0  0  0  0  0
  -20.4765    1.2351   -9.7517 H   0  0  0  0  0  0
  -25.8877    3.6303  -12.7938 H   0  0  0  0  0  0
  -27.1715    5.3843  -11.6031 H   0  0  0  0  0  0
  -24.4421    5.1517   -8.2843 H   0  0  0  0  0  0
  -23.1464    3.4173   -9.5004 H   0  0  0  0  0  0
  -27.5026    6.7559   -9.7378 H   0  0  0  0  0  0
  -25.2598    1.3629  -14.6333 H   0  0  0  0  0  0
  -18.1651   -1.5914  -10.4420 H   0  0  0  0  0  0
  -20.9068   -2.3754  -14.3476 H   0  0  0  0  0  0
  1  2  2  0  0  0
  1  6  1  0  0  0
  1 22  1  0  0  0
  2  3  1  0  0  0
  2 21  1  0  0  0
  3  4  2  0  0  0
  3  7  1  0  0  0
  4  5  1  0  0  0
  4 16  1  0  0  0
  5  6  2  0  0  0
  5 23  1  0  0  0
  6 20  1  0  0  0
  7  8  1  0  0  0
  7 17  2  0  0  0
  8  9  2  0  0  0
  8 19  1  0  0  0
  9 10  1  0  0  0
  9 16  1  0  0  0
 10 11  2  0  0  0
 10 15  1  0  0  0
 11 12  1  0  0  0
 11 24  1  0  0  0
 12 13  2  0  0  0
 12 25  1  0  0  0
 13 14  1  0  0  0
 13 18  1  0  0  0
 14 15  2  0  0  0
 14 26  1  0  0  0
 15 27  1  0  0  0
 18 28  1  0  0  0
 19 29  1  0  0  0
 20 30  1  0  0  0
 21 31  1  0  0  0
M  END
> <s_m_source_file>
../5aux_ligand.sdf

> <i_m_source_file_index>
1

> <s_epik_input>
W09IXWMxW2NIXWMoW09IXSlbY0hdYyhjMTIpb2MoYyhjMj1PKVtPSF0pLWMzW2NIXVtjSF1jKFtPSF0pW2NIXVtjSF0z

> <s_epik_cmdline>
J2VwaWtfYXBwJywgJy1pbWFlJywgJ2xpZ2FuZF9wcm8ubWFlJywgJy1vbWFlJywgJ2xpZ2FuZF9wcmVwLm1hZScsICctbXMnLCAnMScsICctcGgnLCAnNycsICctcGh0JywgJzAuNScsICctbnQn

> <r_lp_tautomer_probability>
0.999999999997365

> <r_epik_Ionization_Penalty>
  0.0451

> <r_epik_Ionization_Penalty_Charging>
  0.0000

> <r_epik_Ionization_Penalty_Neutral>
  0.0451

> <r_epik_State_Penalty>
  0.0262

> <r_epik_Charging_Adjusted_Penalty>
0.0262048054598103

> <i_epik_Tot_Q>
0

> <i_epik_Tot_abs_Q>
0

$$$$
