5auy_ligand
                    3D
 Schrodinger Suite 2020-3.
 32 34  0  0  1  0            999 V2000
  -21.3050    1.7020  -11.0580 O   0  0  0  0  0  0
  -22.2740    2.5620  -10.6200 C   0  0  0  0  0  0
  -23.3970    2.7630  -11.4160 C   0  0  0  0  0  0
  -23.5360    2.1770  -12.4940 O   0  0  0  0  0  0
  -24.3770    3.6370  -10.9460 C   0  0  0  0  0  0
  -25.5420    3.8740  -11.6730 C   0  0  0  0  0  0
  -25.6710    3.2190  -12.8560 O   0  0  0  0  0  0
  -26.5320    4.7360  -11.2220 C   0  0  0  0  0  0
  -26.3560    5.3790  -10.0090 C   0  0  0  0  0  0
  -27.3140    6.2270   -9.5510 O   0  0  0  0  0  0
  -25.2010    5.1590   -9.2670 C   0  0  0  0  0  0
  -24.2160    4.2930   -9.7340 C   0  0  0  0  0  0
  -23.0840    4.0740   -8.9960 O   0  0  0  0  0  0
  -22.0980    3.2060   -9.3950 C   0  0  0  0  0  0
  -21.0080    3.1120   -8.5060 C   0  0  0  0  0  0
  -20.8230    4.1940   -7.6460 C   0  0  0  0  0  0
  -19.7820    4.2020   -6.7200 C   0  0  0  0  0  0
  -18.9000    3.1360   -6.6290 C   0  0  0  0  0  0
  -17.8830    3.1690   -5.7140 O   0  0  0  0  0  0
  -19.0660    2.0420   -7.4680 C   0  0  0  0  0  0
  -20.1100    2.0380   -8.3920 C   0  0  0  0  0  0
  -20.2720    0.9740   -9.2200 O   0  0  0  0  0  0
  -21.4239    1.1839  -12.0210 H   0  0  0  0  0  0
  -24.8764    2.5395  -13.1980 H   0  0  0  0  0  0
  -27.4325    4.9037  -11.8129 H   0  0  0  0  0  0
  -28.2259    6.3974  -10.1421 H   0  0  0  0  0  0
  -25.0657    5.6682   -8.3128 H   0  0  0  0  0  0
  -21.5020    5.0450   -7.6989 H   0  0  0  0  0  0
  -19.6592    5.0588   -6.0574 H   0  0  0  0  0  0
  -17.7635    4.0422   -5.0558 H   0  0  0  0  0  0
  -18.3854    1.1930   -7.4047 H   0  0  0  0  0  0
  -21.0941    0.9659   -9.9508 H   0  0  0  0  0  0
  1  2  1  0  0  0
  1 23  1  0  0  0
  2  3  1  0  0  0
  2 14  2  0  0  0
  3  4  2  0  0  0
  3  5  1  0  0  0
  5  6  2  0  0  0
  5 12  1  0  0  0
  6  7  1  0  0  0
  6  8  1  0  0  0
  7 24  1  0  0  0
  8  9  2  0  0  0
  8 25  1  0  0  0
  9 10  1  0  0  0
  9 11  1  0  0  0
 10 26  1  0  0  0
 11 12  2  0  0  0
 11 27  1  0  0  0
 12 13  1  0  0  0
 13 14  1  0  0  0
 14 15  1  0  0  0
 15 16  2  0  0  0
 15 21  1  0  0  0
 16 17  1  0  0  0
 16 28  1  0  0  0
 17 18  2  0  0  0
 17 29  1  0  0  0
 18 19  1  0  0  0
 18 20  1  0  0  0
 19 30  1  0  0  0
 20 21  2  0  0  0
 20 31  1  0  0  0
 21 22  1  0  0  0
 22 32  1  0  0  0
M  END
> <s_m_source_file>
../5auy_ligand.sdf

> <i_m_source_file_index>
1

> <s_epik_input>
W09IXWMxW2NIXWMoW09IXSlbY0hdW2NIXWMxLWMoYyhbT0hdKWMyPU8pb2MoYzIzKVtjSF1jKFtPSF0pW2NIXWMzW09IXQ==

> <s_epik_cmdline>
J2VwaWtfYXBwJywgJy1pbWFlJywgJ2xpZ2FuZF9wcm8ubWFlJywgJy1vbWFlJywgJ2xpZ2FuZF9wcmVwLm1hZScsICctbXMnLCAnMScsICctcGgnLCAnNycsICctcGh0JywgJzAuNScsICctbnQn

> <r_lp_tautomer_probability>
0.999999999898

> <r_epik_Ionization_Penalty>
  0.2835

> <r_epik_Ionization_Penalty_Charging>
  0.0000

> <r_epik_Ionization_Penalty_Neutral>
  0.2835

> <r_epik_State_Penalty>
  0.2278

> <r_epik_Charging_Adjusted_Penalty>
0.227777753968947

> <i_epik_Tot_Q>
0

> <i_epik_Tot_abs_Q>
0

$$$$
