5avi_ligand
                    3D
 Schrodinger Suite 2020-3.
 54 55  0  0  1  0            999 V2000
  136.7300   24.4150   65.3770 C   0  0  0  0  0  0
  136.9460   23.1000   65.0310 C   0  0  0  0  0  0
  140.3280   17.3430   65.8300 C   0  0  0  0  0  0
  139.1740   17.3200   63.7610 C   0  0  0  0  0  0
  140.0430   18.6690   65.9920 C   0  0  0  0  0  0
  138.8670   18.6580   63.9110 C   0  0  0  0  0  0
  139.0360   24.8480   65.0220 C   0  0  0  0  0  0
  139.2570   23.5360   64.6700 C   0  0  0  0  0  0
  137.7870   25.2930   65.3740 C   0  0  0  0  0  0
  138.1930   22.6360   64.6730 C   0  0  0  0  0  0
  139.9180   16.6470   64.7120 C   0  0  0  0  0  0
  139.3100   19.3170   65.0370 C   0  0  0  0  0  0
  140.6920   23.3640   64.3490 C   0  0  0  0  0  0
  141.3930   14.5850   64.2630 C   0  0  0  0  0  0
  142.6770   15.3350   64.0620 C   0  0  0  0  0  0
  142.5270   20.9560   64.4520 C   0  0  0  0  0  0
  141.6340   20.5740   62.2370 C   0  0  0  0  0  0
  143.2270   22.3460   62.5700 C   0  0  0  0  0  0
  139.0630   14.4190   64.8390 C   0  0  0  0  0  0
  138.2210   21.1840   64.3460 C   0  0  0  0  0  0
  137.5900   26.7110   65.7450 C   0  0  0  0  0  0
  142.0570   21.6510   63.1950 C   0  0  0  0  0  0
  140.2030   15.2600   64.5590 N   0  0  0  0  0  0
  141.4770   24.0700   64.9680 O   0  0  0  0  0  0
  141.4290   13.3660   64.1550 O   0  0  0  0  0  0
  139.0880   20.6460   65.3140 O   0  0  0  0  0  0
  140.9380   22.5510   63.2680 O   0  0  0  0  0  0
  136.5360   27.2520   65.0870 F   0  0  0  0  0  0
  137.3650   26.8640   67.0750 F   0  0  0  0  0  0
  138.6660   27.4980   65.4860 F   0  0  0  0  0  0
  135.7314   24.7559   65.6503 H   0  0  0  0  0  0
  136.1059   22.4056   65.0406 H   0  0  0  0  0  0
  140.8931   16.8222   66.6030 H   0  0  0  0  0  0
  138.8238   16.7856   62.8779 H   0  0  0  0  0  0
  140.3961   19.2047   66.8731 H   0  0  0  0  0  0
  138.2853   19.1827   63.1531 H   0  0  0  0  0  0
  139.8712   25.5484   65.0211 H   0  0  0  0  0  0
  142.4958   16.4126   64.1881 H   0  0  0  0  0  0
  143.0586   15.1435   63.0483 H   0  0  0  0  0  0
  143.4178   14.9987   64.8023 H   0  0  0  0  0  0
  143.3853   20.3102   64.2148 H   0  0  0  0  0  0
  141.7093   20.3438   64.8601 H   0  0  0  0  0  0
  142.8285   21.7081   65.1959 H   0  0  0  0  0  0
  142.4464   19.8404   62.1282 H   0  0  0  0  0  0
  141.4106   21.0217   61.2574 H   0  0  0  0  0  0
  140.7353   20.0713   62.6240 H   0  0  0  0  0  0
  144.0796   21.6530   62.5168 H   0  0  0  0  0  0
  143.5023   23.2199   63.1786 H   0  0  0  0  0  0
  142.9585   22.6756   61.5555 H   0  0  0  0  0  0
  138.1877   15.0485   65.0570 H   0  0  0  0  0  0
  139.2822   13.7819   65.7085 H   0  0  0  0  0  0
  138.8508   13.7860   63.9647 H   0  0  0  0  0  0
  137.2038   20.7719   64.4198 H   0  0  0  0  0  0
  138.5992   21.0459   63.3223 H   0  0  0  0  0  0
  1  2  2  0  0  0
  1  9  1  0  0  0
  1 31  1  0  0  0
  2 10  1  0  0  0
  2 32  1  0  0  0
  3  5  2  0  0  0
  3 11  1  0  0  0
  3 33  1  0  0  0
  4  6  1  0  0  0
  4 11  2  0  0  0
  4 34  1  0  0  0
  5 12  1  0  0  0
  5 35  1  0  0  0
  6 12  2  0  0  0
  6 36  1  0  0  0
  7  8  1  0  0  0
  7  9  2  0  0  0
  7 37  1  0  0  0
  8 10  2  0  0  0
  8 13  1  0  0  0
  9 21  1  0  0  0
 10 20  1  0  0  0
 11 23  1  0  0  0
 12 26  1  0  0  0
 13 24  2  0  0  0
 13 27  1  0  0  0
 14 15  1  0  0  0
 14 23  1  0  0  0
 14 25  2  0  0  0
 15 38  1  0  0  0
 15 39  1  0  0  0
 15 40  1  0  0  0
 16 22  1  0  0  0
 16 41  1  0  0  0
 16 42  1  0  0  0
 16 43  1  0  0  0
 17 22  1  0  0  0
 17 44  1  0  0  0
 17 45  1  0  0  0
 17 46  1  0  0  0
 18 22  1  0  0  0
 18 47  1  0  0  0
 18 48  1  0  0  0
 18 49  1  0  0  0
 19 23  1  0  0  0
 19 50  1  0  0  0
 19 51  1  0  0  0
 19 52  1  0  0  0
 20 26  1  0  0  0
 20 53  1  0  0  0
 20 54  1  0  0  0
 21 28  1  0  0  0
 21 29  1  0  0  0
 21 30  1  0  0  0
 22 27  1  0  0  0
M  END
> <s_m_source_file>
../5avi_ligand.sdf

> <i_m_source_file_index>
1

> <s_epik_input>
W0NIM11DKFtDSDNdKShbQ0gzXSlPQyg9TyljMVtjSF1jKEMoRikoRilGKVtjSF1bY0hdYzFbQ0gyXU9jKFtjSF1bY0hdMilbY0hdW2NIXWMyTihbQ0gzXSlDKD1PKVtDSDNd

> <s_epik_cmdline>
J2VwaWtfYXBwJywgJy1pbWFlJywgJ2xpZ2FuZF9wcm8ubWFlJywgJy1vbWFlJywgJ2xpZ2FuZF9wcmVwLm1hZScsICctbXMnLCAnMScsICctcGgnLCAnNycsICctcGh0JywgJzAuNScsICctbnQn

> <r_lp_tautomer_probability>
1

> <r_epik_Ionization_Penalty>
  0.0000

> <r_epik_Ionization_Penalty_Charging>
  0.0000

> <r_epik_Ionization_Penalty_Neutral>
  0.0000

> <r_epik_State_Penalty>
 -0.0000

> <r_epik_Charging_Adjusted_Penalty>
0

> <i_epik_Tot_Q>
0

> <i_epik_Tot_abs_Q>
0

> <s_epik_Chemistry_Notes>
This compound has an ester and may undergo hydrolysis at high or low pH.

$$$$
