5awj_ligand
                    3D
 Schrodinger Suite 2020-3.
 83 85  0  0  1  0            999 V2000
   16.3430  -20.5030  -26.9700 O   0  0  0  0  0  0
   17.1620  -21.6240  -26.6310 C   0  0  0  0  0  0
   17.5580  -22.3670  -27.9000 C   0  0  0  0  0  0
   18.8060  -23.2160  -27.6940 C   0  0  2  0  0  0
   19.4820  -23.4790  -29.0310 C   0  0  0  0  0  0
   20.3430  -22.2870  -29.4240 C   0  0  0  0  0  0
   21.4890  -22.6990  -30.3340 C   0  0  0  0  0  0
   21.6980  -21.6700  -31.4360 C   0  0  0  0  0  0
   22.7000  -20.6090  -31.0020 C   0  0  0  0  0  0
   24.1150  -21.0610  -31.2820 C   0  0  0  0  0  0
   18.4900  -24.5240  -26.9860 C   0  0  1  0  0  0
   17.5750  -25.3970  -27.8320 C   0  0  0  0  0  0
   19.7700  -25.2710  -26.6350 C   0  0  2  0  0  0
   19.5130  -26.6150  -25.9770 C   0  0  1  0  0  0
   18.4350  -26.4810  -24.9070 C   0  0  0  0  0  0
   19.1830  -27.7490  -26.9270 C   0  0  0  0  0  0
   19.0520  -29.0510  -26.1420 C   0  0  0  0  0  0
   20.2510  -29.3630  -25.2420 C   0  0  0  0  0  0
   20.7370  -28.1270  -24.5200 C   0  0  0  0  0  0
   20.8620  -26.9030  -25.3650 C   0  0  2  0  0  0
   21.2950  -25.5930  -24.7340 C   0  0  0  0  0  0
   20.6600  -24.5320  -25.6350 C   0  0  0  0  0  0
   21.0250  -28.1400  -23.2080 C   0  0  0  0  0  0
   20.8640  -29.3820  -22.4550 C   0  0  0  0  0  0
   20.5510  -29.4070  -21.1530 C   0  0  0  0  0  0
   20.3880  -30.7420  -20.4590 C   0  0  0  0  0  0
   21.0510  -30.7690  -19.0870 C   0  0  1  0  0  0
   22.4660  -30.8000  -19.2540 O   0  0  0  0  0  0
   20.6870  -29.5450  -18.3100 C   0  0  0  0  0  0
   20.1700  -29.6580  -17.1030 C   0  0  0  0  0  0
   20.9310  -28.2090  -18.9510 C   0  0  2  0  0  0
   20.3610  -27.1740  -18.1510 O   0  0  0  0  0  0
   20.3500  -28.1320  -20.3640 C   0  0  0  0  0  0
   15.9585  -19.8433  -26.1782 H   0  0  0  0  0  0
   18.0675  -21.2735  -26.1141 H   0  0  0  0  0  0
   16.6013  -22.3012  -25.9699 H   0  0  0  0  0  0
   16.7365  -23.0306  -28.2078 H   0  0  0  0  0  0
   17.7629  -21.6414  -28.7009 H   0  0  0  0  0  0
   19.4955  -22.6554  -27.0457 H   0  0  0  0  0  0
   20.1177  -24.3731  -28.9508 H   0  0  0  0  0  0
   18.7160  -23.6418  -29.8035 H   0  0  0  0  0  0
   19.7257  -21.5485  -29.9564 H   0  0  0  0  0  0
   20.7668  -21.8266  -28.5193 H   0  0  0  0  0  0
   22.4140  -22.7812  -29.7444 H   0  0  0  0  0  0
   21.2602  -23.6714  -30.7945 H   0  0  0  0  0  0
   22.0802  -22.1709  -32.3377 H   0  0  0  0  0  0
   20.7405  -21.1802  -31.6667 H   0  0  0  0  0  0
   22.5095  -19.6770  -31.5544 H   0  0  0  0  0  0
   22.5938  -20.4239  -29.9229 H   0  0  0  0  0  0
   24.8198  -20.2799  -30.9608 H   0  0  0  0  0  0
   24.2353  -21.2426  -32.3602 H   0  0  0  0  0  0
   24.3196  -21.9895  -30.7287 H   0  0  0  0  0  0
   17.9614  -24.2818  -26.0522 H   0  0  0  0  0  0
   16.6579  -24.8400  -28.0743 H   0  0  0  0  0  0
   17.3142  -26.3065  -27.2709 H   0  0  0  0  0  0
   18.0914  -25.6756  -28.7624 H   0  0  0  0  0  0
   20.2557  -25.3776  -27.6162 H   0  0  0  0  0  0
   17.4670  -26.2719  -25.3859 H   0  0  0  0  0  0
   18.6937  -25.6558  -24.2273 H   0  0  0  0  0  0
   18.3666  -27.4187  -24.3360 H   0  0  0  0  0  0
   18.2338  -27.5335  -27.4394 H   0  0  0  0  0  0
   19.9868  -27.8496  -27.6712 H   0  0  0  0  0  0
   18.1653  -29.0002  -25.4931 H   0  0  0  0  0  0
   18.9460  -29.8925  -26.8425 H   0  0  0  0  0  0
   19.9609  -30.1133  -24.4918 H   0  0  0  0  0  0
   21.0762  -29.7563  -25.8538 H   0  0  0  0  0  0
   21.6778  -27.1961  -26.0421 H   0  0  0  0  0  0
   20.9205  -25.5422  -23.7010 H   0  0  0  0  0  0
   22.3934  -25.5337  -24.7291 H   0  0  0  0  0  0
   21.4335  -23.9695  -26.1784 H   0  0  0  0  0  0
   20.0474  -23.8355  -25.0438 H   0  0  0  0  0  0
   21.3773  -27.2230  -22.7131 H   0  0  0  0  0  0
   21.0114  -30.3241  -23.0034 H   0  0  0  0  0  0
   19.3177  -30.9563  -20.3230 H   0  0  0  0  0  0
   20.8451  -31.5324  -21.0724 H   0  0  0  0  0  0
   20.7645  -31.6698  -18.5244 H   0  0  0  0  0  0
   22.9370  -31.6284  -19.8034 H   0  0  0  0  0  0
   20.0057  -30.6540  -16.6661 H   0  0  0  0  0  0
   19.9028  -28.7563  -16.5325 H   0  0  0  0  0  0
   22.0169  -28.0346  -18.9728 H   0  0  0  0  0  0
   20.6574  -27.0671  -17.0971 H   0  0  0  0  0  0
   20.8430  -27.2974  -20.8841 H   0  0  0  0  0  0
   19.2739  -27.9229  -20.2730 H   0  0  0  0  0  0
  1  2  1  0  0  0
  1 34  1  0  0  0
  2  3  1  0  0  0
  2 35  1  0  0  0
  2 36  1  0  0  0
  3  4  1  0  0  0
  3 37  1  0  0  0
  3 38  1  0  0  0
  4  5  1  0  0  0
  4 11  1  0  0  0
  4 39  1  0  0  0
  5  6  1  0  0  0
  5 40  1  0  0  0
  5 41  1  0  0  0
  6  7  1  0  0  0
  6 42  1  0  0  0
  6 43  1  0  0  0
  7  8  1  0  0  0
  7 44  1  0  0  0
  7 45  1  0  0  0
  8  9  1  0  0  0
  8 46  1  0  0  0
  8 47  1  0  0  0
  9 10  1  0  0  0
  9 48  1  0  0  0
  9 49  1  0  0  0
 10 50  1  0  0  0
 10 51  1  0  0  0
 10 52  1  0  0  0
 11 12  1  0  0  0
 11 13  1  0  0  0
 11 53  1  0  0  0
 12 54  1  0  0  0
 12 55  1  0  0  0
 12 56  1  0  0  0
 13 14  1  0  0  0
 13 22  1  0  0  0
 13 57  1  0  0  0
 14 15  1  0  0  0
 14 16  1  0  0  0
 14 20  1  0  0  0
 15 58  1  0  0  0
 15 59  1  0  0  0
 15 60  1  0  0  0
 16 17  1  0  0  0
 16 61  1  0  0  0
 16 62  1  0  0  0
 17 18  1  0  0  0
 17 63  1  0  0  0
 17 64  1  0  0  0
 18 19  1  0  0  0
 18 65  1  0  0  0
 18 66  1  0  0  0
 19 20  1  0  0  0
 19 23  2  0  0  0
 20 21  1  0  0  0
 20 67  1  0  0  0
 21 22  1  0  0  0
 21 68  1  0  0  0
 21 69  1  0  0  0
 22 70  1  0  0  0
 22 71  1  0  0  0
 23 24  1  0  0  0
 23 72  1  0  0  0
 24 25  2  0  0  0
 24 73  1  0  0  0
 25 26  1  0  0  0
 25 33  1  0  0  0
 26 27  1  0  0  0
 26 74  1  0  0  0
 26 75  1  0  0  0
 27 28  1  0  0  0
 27 29  1  0  0  0
 27 76  1  0  0  0
 28 77  1  0  0  0
 29 30  2  0  0  0
 29 31  1  0  0  0
 30 78  1  0  0  0
 30 79  1  0  0  0
 31 32  1  0  0  0
 31 33  1  0  0  0
 31 80  1  0  0  0
 32 81  1  0  0  0
 33 82  1  0  0  0
 33 83  1  0  0  0
M  END
> <s_m_source_file>
../5awj_ligand.sdf

> <i_m_source_file_index>
1

> <s_epik_input>
W0NIM11bQ0gyXVtDSDJdW0NIMl1bQ0gyXVtDSDJdW0NAQEhdKFtDSDJdW0NIMl1bT0hdKVtDQEBIXShbQ0gzXSlbQ0BIXTFbQ0gyXVtDSDJdW0NASF0oW0NAQF0xMltDSDNdKUMoXFtDSDJdW0NIMl1bQ0gyXTIpPVtDSF1cW0NIXT1DM1tDSDJdW0NAQEhdKFtPSF0pQyg9W0NIMl0pW0NASF0oW09IXSlbQ0gyXTM=

> <s_epik_cmdline>
J2VwaWtfYXBwJywgJy1pbWFlJywgJ2xpZ2FuZF9wcm8ubWFlJywgJy1vbWFlJywgJ2xpZ2FuZF9wcmVwLm1hZScsICctbXMnLCAnMScsICctcGgnLCAnNycsICctcGh0JywgJzAuNScsICctbnQn

> <r_lp_tautomer_probability>
1

> <r_epik_Ionization_Penalty>
  0.0000

> <r_epik_Ionization_Penalty_Charging>
  0.0000

> <r_epik_Ionization_Penalty_Neutral>
  0.0000

> <r_epik_State_Penalty>
 -0.0000

> <r_epik_Charging_Adjusted_Penalty>
0

> <i_epik_Tot_Q>
0

> <i_epik_Tot_abs_Q>
0

$$$$
