5axp_ligand
                    3D
 Schrodinger Suite 2020-3.
 51 55  0  0  1  0            999 V2000
    9.5540    1.8700  -20.2790 C   0  0  0  0  0  0
    8.3050    1.7530  -19.7020 C   0  0  0  0  0  0
   10.5310    0.9360  -20.0080 C   0  0  0  0  0  0
    8.0270    0.7080  -18.8500 C   0  0  0  0  0  0
   10.2660   -0.1160  -19.1600 C   0  0  0  0  0  0
    9.8370   -0.5160  -23.5650 C   0  0  0  0  0  0
    8.9460   -0.9290  -22.5950 C   0  0  0  0  0  0
    7.8060   -3.0090  -16.7870 C   0  0  0  0  0  0
    9.6790   -2.6450  -24.6020 C   0  0  0  0  0  0
    8.5950   -2.2700  -15.8780 C   0  0  0  0  0  0
    9.0150   -0.2140  -18.5920 C   0  0  0  0  0  0
   10.2210   -1.3790  -24.5730 C   0  0  0  0  0  0
    8.4100   -2.2020  -22.5960 C   0  0  0  0  0  0
    8.7980   -3.0460  -23.6180 C   0  0  0  0  0  0
    7.9200   -2.3390  -17.9840 C   0  0  0  0  0  0
    6.3550   -3.2900  -21.7030 C   0  0  0  0  0  0
    7.3760   -2.6400  -19.2670 C   0  0  0  0  0  0
    5.5650   -3.6960  -20.6990 C   0  0  0  0  0  0
    6.0670   -3.3630  -19.3490 C   0  0  0  0  0  0
   11.8780   -1.7810  -26.3760 C   0  0  0  0  0  0
   11.5930    0.4080  -25.6230 C   0  0  0  0  0  0
   12.7140    0.3350  -26.6340 C   0  0  0  0  0  0
    4.1190   -4.7940  -22.1360 C   0  0  0  0  0  0
    9.1770   -1.2190  -16.4600 N   0  0  0  0  0  0
    8.0540   -2.3110  -20.3250 N   0  0  0  0  0  0
    8.7480   -1.2810  -17.7310 N   0  0  0  0  0  0
    7.5490   -2.6200  -21.5460 N   0  0  0  0  0  0
   11.1410   -0.9530  -25.5610 N   0  0  0  0  0  0
    5.4760   -3.6600  -18.3200 O   0  0  0  0  0  0
   11.7580   -2.9880  -26.5230 O   0  0  0  0  0  0
   12.8120   -1.0310  -27.0450 O   0  0  0  0  0  0
    4.3600   -4.3810  -20.7830 O   0  0  0  0  0  0
    8.3160   -4.2940  -23.6600 F   0  0  0  0  0  0
    9.7678    2.7021  -20.9498 H   0  0  0  0  0  0
    7.5348    2.4922  -19.9223 H   0  0  0  0  0  0
   11.5156    1.0305  -20.4661 H   0  0  0  0  0  0
    7.0438    0.6130  -18.3891 H   0  0  0  0  0  0
   11.0333   -0.8588  -18.9419 H   0  0  0  0  0  0
   10.2397    0.4964  -23.5354 H   0  0  0  0  0  0
    8.6579   -0.2324  -21.8077 H   0  0  0  0  0  0
    7.2318   -3.9131  -16.5847 H   0  0  0  0  0  0
    9.9467   -3.3323  -25.4045 H   0  0  0  0  0  0
    8.7146   -2.5274  -14.8256 H   0  0  0  0  0  0
    6.0284   -3.5061  -22.7202 H   0  0  0  0  0  0
   11.9884    0.7706  -24.6627 H   0  0  0  0  0  0
   10.8175    1.0992  -25.9846 H   0  0  0  0  0  0
   12.4785    0.9843  -27.4901 H   0  0  0  0  0  0
   13.6517    0.6702  -26.1667 H   0  0  0  0  0  0
    3.1627   -5.3349  -22.1894 H   0  0  0  0  0  0
    4.9332   -5.4549  -22.4681 H   0  0  0  0  0  0
    4.0765   -3.9087  -22.7875 H   0  0  0  0  0  0
  1  2  2  0  0  0
  1  3  1  0  0  0
  1 34  1  0  0  0
  2  4  1  0  0  0
  2 35  1  0  0  0
  3  5  2  0  0  0
  3 36  1  0  0  0
  4 11  2  0  0  0
  4 37  1  0  0  0
  5 11  1  0  0  0
  5 38  1  0  0  0
  6  7  2  0  0  0
  6 12  1  0  0  0
  6 39  1  0  0  0
  7 13  1  0  0  0
  7 40  1  0  0  0
  8 10  1  0  0  0
  8 15  2  0  0  0
  8 41  1  0  0  0
  9 12  2  0  0  0
  9 14  1  0  0  0
  9 42  1  0  0  0
 10 24  2  0  0  0
 10 43  1  0  0  0
 11 26  1  0  0  0
 12 28  1  0  0  0
 13 14  2  0  0  0
 13 27  1  0  0  0
 14 33  1  0  0  0
 15 17  1  0  0  0
 15 26  1  0  0  0
 16 18  2  0  0  0
 16 27  1  0  0  0
 16 44  1  0  0  0
 17 19  1  0  0  0
 17 25  2  0  0  0
 18 19  1  0  0  0
 18 32  1  0  0  0
 19 29  2  0  0  0
 20 28  1  0  0  0
 20 30  2  0  0  0
 20 31  1  0  0  0
 21 22  1  0  0  0
 21 28  1  0  0  0
 21 45  1  0  0  0
 21 46  1  0  0  0
 22 31  1  0  0  0
 22 47  1  0  0  0
 22 48  1  0  0  0
 23 32  1  0  0  0
 23 49  1  0  0  0
 23 50  1  0  0  0
 23 51  1  0  0  0
 24 26  1  0  0  0
 25 27  1  0  0  0
M  END
> <s_m_source_file>
../5axp_ligand.sdf

> <i_m_source_file_index>
1

> <s_epik_input>
W2NIXTFbY0hdW2NIXVtjSF1bY0hdYzEtbjJuW2NIXVtjSF1jMi1jM2MoPU8pYyhPW0NIM10pW2NIXW4objMpLWMoYyhGKVtjSF00KVtjSF1bY0hdYzROKEM1PU8pW0NIMl1bQ0gyXU81

> <s_epik_cmdline>
J2VwaWtfYXBwJywgJy1pbWFlJywgJ2xpZ2FuZF9wcm8ubWFlJywgJy1vbWFlJywgJ2xpZ2FuZF9wcmVwLm1hZScsICctbXMnLCAnMScsICctcGgnLCAnNycsICctcGh0JywgJzAuNScsICctbnQn

> <r_lp_tautomer_probability>
1

> <r_epik_Ionization_Penalty>
  0.0000

> <r_epik_Ionization_Penalty_Charging>
  0.0000

> <r_epik_Ionization_Penalty_Neutral>
  0.0000

> <r_epik_State_Penalty>
 -0.0000

> <r_epik_Charging_Adjusted_Penalty>
4.41682619459459e-07

> <i_epik_Tot_Q>
0

> <i_epik_Tot_abs_Q>
0

> <s_epik_Chemistry_Notes>
This compound has an ester and may undergo hydrolysis at high or low pH.

$$$$
