5axq_ligand
                    3D
 Schrodinger Suite 2020-3.
 63 68  0  0  1  0            999 V2000
   15.2680    1.7850   20.4900 C   0  0  0  0  0  0
   14.3470    0.7660   20.3710 C   0  0  0  0  0  0
   16.4340    1.7680   19.7540 C   0  0  0  0  0  0
   14.5870   -0.2780   19.5040 C   0  0  0  0  0  0
   16.6860    0.7280   18.8840 C   0  0  0  0  0  0
   15.5580   -0.5490   23.8850 C   0  0  0  0  0  0
   16.2270   -1.0320   22.7780 C   0  0  0  0  0  0
   16.9560   -3.0030   16.8560 C   0  0  0  0  0  0
   16.1000   -2.2770   15.9960 C   0  0  0  0  0  0
   15.9340   -2.6800   24.9520 C   0  0  0  0  0  0
   15.7550   -0.2800   18.7740 C   0  0  0  0  0  0
   15.4380   -1.4080   24.9530 C   0  0  0  0  0  0
   16.7490   -2.3120   22.7480 C   0  0  0  0  0  0
   16.5980   -3.1430   23.8440 C   0  0  0  0  0  0
   16.8790   -2.3630   18.0710 C   0  0  0  0  0  0
   18.6430   -3.3710   21.6840 C   0  0  0  0  0  0
   17.4940   -2.6790   19.3250 C   0  0  0  0  0  0
   19.3800   -3.7550   20.6390 C   0  0  0  0  0  0
   18.8080   -3.3990   19.3300 C   0  0  0  0  0  0
   14.9170   -2.2850   27.0070 C   0  0  0  0  0  0
   11.7770   -1.0060   26.8010 C   0  0  0  0  0  0
   11.5580    0.4750   26.6960 C   0  0  0  0  0  0
   12.6750   -0.1690   25.9300 C   0  0  0  0  0  0
   15.6530   -3.3680   26.2480 C   0  0  0  0  0  0
   16.9200   -3.7740   26.9800 C   0  0  0  0  0  0
   14.7400   -4.5610   26.0780 C   0  0  0  0  0  0
   20.8790   -4.8070   22.0070 C   0  0  0  0  0  0
   14.0650    0.0270   26.4170 C   0  0  0  0  0  0
   15.5110   -1.2570   16.6320 N   0  0  0  0  0  0
   16.8760   -2.3610   20.4190 N   0  0  0  0  0  0
   15.9970   -1.3330   17.8850 N   0  0  0  0  0  0
   17.4500   -2.7080   21.5990 N   0  0  0  0  0  0
   14.8230   -1.1760   26.1740 N   0  0  0  0  0  0
   19.3740   -3.6740   18.2810 O   0  0  0  0  0  0
   14.4890   -2.4070   28.1470 O   0  0  0  0  0  0
   20.5860   -4.4320   20.6600 O   0  0  0  0  0  0
   17.0950   -4.3860   23.8480 F   0  0  0  0  0  0
   15.0726    2.6121   21.1725 H   0  0  0  0  0  0
   13.4310    0.7861   20.9614 H   0  0  0  0  0  0
   17.1569    2.5769   19.8599 H   0  0  0  0  0  0
   13.8652   -1.0879   19.3978 H   0  0  0  0  0  0
   17.6033    0.7047   18.2957 H   0  0  0  0  0  0
   15.1465    0.4600   23.9114 H   0  0  0  0  0  0
   16.3466   -0.3885   21.9064 H   0  0  0  0  0  0
   17.5504   -3.8826   16.6087 H   0  0  0  0  0  0
   15.9396   -2.5181   14.9452 H   0  0  0  0  0  0
   19.0206   -3.6034   22.6797 H   0  0  0  0  0  0
   11.9815   -1.2731   27.8483 H   0  0  0  0  0  0
   10.8762   -1.5352   26.4569 H   0  0  0  0  0  0
   10.5501    0.6695   26.3005 H   0  0  0  0  0  0
   11.6555    0.9316   27.6920 H   0  0  0  0  0  0
   12.9855   -0.1705   24.8747 H   0  0  0  0  0  0
   17.5735   -2.8968   27.0961 H   0  0  0  0  0  0
   17.4452   -4.5486   26.4019 H   0  0  0  0  0  0
   16.6591   -4.1707   27.9722 H   0  0  0  0  0  0
   13.8277   -4.2518   25.5469 H   0  0  0  0  0  0
   14.4710   -4.9607   27.0669 H   0  0  0  0  0  0
   15.2571   -5.3385   25.4966 H   0  0  0  0  0  0
   21.8369   -5.3469   22.0372 H   0  0  0  0  0  0
   20.0789   -5.4583   22.3886 H   0  0  0  0  0  0
   20.9468   -3.9046   22.6323 H   0  0  0  0  0  0
   14.5258    0.8699   25.8811 H   0  0  0  0  0  0
   14.0487    0.2431   27.4954 H   0  0  0  0  0  0
  1  2  2  0  0  0
  1  3  1  0  0  0
  1 38  1  0  0  0
  2  4  1  0  0  0
  2 39  1  0  0  0
  3  5  2  0  0  0
  3 40  1  0  0  0
  4 11  2  0  0  0
  4 41  1  0  0  0
  5 11  1  0  0  0
  5 42  1  0  0  0
  6  7  2  0  0  0
  6 12  1  0  0  0
  6 43  1  0  0  0
  7 13  1  0  0  0
  7 44  1  0  0  0
  8  9  1  0  0  0
  8 15  2  0  0  0
  8 45  1  0  0  0
  9 29  2  0  0  0
  9 46  1  0  0  0
 10 12  2  0  0  0
 10 14  1  0  0  0
 10 24  1  0  0  0
 11 31  1  0  0  0
 12 33  1  0  0  0
 13 14  2  0  0  0
 13 32  1  0  0  0
 14 37  1  0  0  0
 15 17  1  0  0  0
 15 31  1  0  0  0
 16 18  2  0  0  0
 16 32  1  0  0  0
 16 47  1  0  0  0
 17 19  1  0  0  0
 17 30  2  0  0  0
 18 19  1  0  0  0
 18 36  1  0  0  0
 19 34  2  0  0  0
 20 24  1  0  0  0
 20 33  1  0  0  0
 20 35  2  0  0  0
 21 22  1  0  0  0
 21 23  1  0  0  0
 21 48  1  0  0  0
 21 49  1  0  0  0
 22 23  1  0  0  0
 22 50  1  0  0  0
 22 51  1  0  0  0
 23 28  1  0  0  0
 23 52  1  0  0  0
 24 25  1  0  0  0
 24 26  1  0  0  0
 25 53  1  0  0  0
 25 54  1  0  0  0
 25 55  1  0  0  0
 26 56  1  0  0  0
 26 57  1  0  0  0
 26 58  1  0  0  0
 27 36  1  0  0  0
 27 59  1  0  0  0
 27 60  1  0  0  0
 27 61  1  0  0  0
 28 33  1  0  0  0
 28 62  1  0  0  0
 28 63  1  0  0  0
 29 31  1  0  0  0
 30 32  1  0  0  0
M  END
> <s_m_source_file>
../5axq_ligand.sdf

> <i_m_source_file_index>
1

> <s_epik_input>
W2NIXTFbY0hdW2NIXVtjSF1bY0hdYzEtbjJuW2NIXVtjSF1jMi1jM2MoPU8pYyhPW0NIM10pW2NIXW4objMpLWMoYzRGKVtjSF1bY0hdYyhjNDUpTihDKD1PKUM1KFtDSDNdKVtDSDNdKVtDSDJdW0NIXTZbQ0gyXVtDSDJdNg==

> <s_epik_cmdline>
J2VwaWtfYXBwJywgJy1pbWFlJywgJ2xpZ2FuZF9wcm8ubWFlJywgJy1vbWFlJywgJ2xpZ2FuZF9wcmVwLm1hZScsICctbXMnLCAnMScsICctcGgnLCAnNycsICctcGh0JywgJzAuNScsICctbnQn

> <r_lp_tautomer_probability>
1

> <r_epik_Ionization_Penalty>
  0.0000

> <r_epik_Ionization_Penalty_Charging>
  0.0000

> <r_epik_Ionization_Penalty_Neutral>
  0.0000

> <r_epik_State_Penalty>
 -0.0000

> <r_epik_Charging_Adjusted_Penalty>
6.11857443010839e-07

> <i_epik_Tot_Q>
0

> <i_epik_Tot_abs_Q>
0

$$$$
