5azf_ligand
                    3D
 Schrodinger Suite 2020-3.
 76 77  0  0  1  0            999 V2000
  -24.8030   24.5270   -2.5940 N   0  3  0  0  0  0
  -24.1740   23.4950   -3.4610 C   0  0  2  0  0  0
  -22.8020   23.0870   -2.9620 C   0  0  0  0  0  0
  -22.0010   23.9270   -2.5620 O   0  0  0  0  0  0
  -24.0270   24.0070   -4.8980 C   0  0  0  0  0  0
  -25.3190   24.2690   -5.5780 C   0  0  0  0  0  0
  -25.9470   25.4720   -5.7200 C   0  0  0  0  0  0
  -26.1820   23.2900   -6.1600 C   0  0  0  0  0  0
  -27.1530   25.3040   -6.3570 N   0  3  0  0  0  0
  -27.3210   23.9730   -6.6390 C   0  0  0  0  0  0
  -26.1030   21.8990   -6.3250 C   0  0  0  0  0  0
  -28.3810   23.3100   -7.2690 C   0  0  0  0  0  0
  -27.1550   21.2400   -6.9510 C   0  0  0  0  0  0
  -28.2790   21.9480   -7.4160 C   0  0  0  0  0  0
  -22.5340   21.7890   -2.9920 N   0  0  0  0  0  0
  -21.2340   21.2780   -2.5860 C   0  0  2  0  0  0
  -20.9890   19.9330   -3.2340 C   0  0  0  0  0  0
  -21.9300   19.2210   -3.5810 O   0  0  0  0  0  0
  -21.1310   21.1450   -1.0630 C   0  0  0  0  0  0
  -22.0450   20.1140   -0.4360 C   0  0  0  0  0  0
  -21.7360   19.8960    1.0380 C   0  0  0  0  0  0
  -20.8200   19.1060    1.3580 O   0  5  0  0  0  0
  -22.4050   20.5290    1.8800 O   0  0  0  0  0  0
  -19.7170   19.6020   -3.4210 N   0  0  0  0  0  0
  -19.3310   18.3320   -4.0130 C   0  0  2  0  0  0
  -19.7890   17.2330   -3.0560 C   0  0  0  0  0  0
  -19.5560   17.3210   -1.8500 O   0  0  0  0  0  0
  -17.8100   18.2950   -4.1780 C   0  0  0  0  0  0
  -17.2500   17.0960   -4.9240 C   0  0  0  0  0  0
  -17.6770   17.0510   -6.3780 C   0  0  0  0  0  0
  -17.7680   18.1260   -7.0090 O   0  0  0  0  0  0
  -17.9050   15.9360   -6.8960 O   0  5  0  0  0  0
  -20.4540   16.2090   -3.5860 N   0  0  0  0  0  0
  -20.9290   15.1100   -2.7550 C   0  0  2  0  0  0
  -19.7530   14.3900   -2.1100 C   0  0  0  0  0  0
  -19.8170   14.1320   -0.8890 O   0  0  0  0  0  0
  -21.7290   14.1040   -3.5850 C   0  0  0  0  0  0
  -22.2700   12.9240   -2.7720 C   0  0  0  0  0  0
  -23.3710   13.4070   -1.8400 C   0  0  0  0  0  0
  -22.8030   11.8530   -3.7080 C   0  0  0  0  0  0
  -18.7900   14.0800   -2.8450 O   0  5  0  0  0  0
  -24.8978   24.1372   -1.5698 H   0  0  0  0  0  0
  -25.8004   24.7762   -2.9852 H   0  0  0  0  0  0
  -24.1760   25.4308   -2.5859 H   0  0  0  0  0  0
  -24.8516   22.6301   -3.4069 H   0  0  0  0  0  0
  -23.4635   24.9517   -4.8948 H   0  0  0  0  0  0
  -23.4879   23.2606   -5.4999 H   0  0  0  0  0  0
  -25.4705   26.3891   -5.3433 H   0  0  0  0  0  0
  -25.2338   21.3458   -5.9693 H   0  0  0  0  0  0
  -29.2542   23.8540   -7.6292 H   0  0  0  0  0  0
  -27.1086   20.1591   -7.0836 H   0  0  0  0  0  0
  -29.0871   21.4031   -7.9040 H   0  0  0  0  0  0
  -23.3163   21.0944   -3.3319 H   0  0  0  0  0  0
  -20.5046   22.0189   -2.9453 H   0  0  0  0  0  0
  -20.1051   20.8581   -0.7886 H   0  0  0  0  0  0
  -21.3806   22.1078   -0.5931 H   0  0  0  0  0  0
  -23.0891   20.4495   -0.5211 H   0  0  0  0  0  0
  -21.9252   19.1526   -0.9569 H   0  0  0  0  0  0
  -18.9450   20.3224   -3.1128 H   0  0  0  0  0  0
  -19.8125   18.2367   -4.9974 H   0  0  0  0  0  0
  -17.4801   19.1834   -4.7365 H   0  0  0  0  0  0
  -17.3337   18.2874   -3.1865 H   0  0  0  0  0  0
  -16.1508   17.1296   -4.8994 H   0  0  0  0  0  0
  -17.5993   16.1698   -4.4443 H   0  0  0  0  0  0
  -20.6433   16.2009   -4.6696 H   0  0  0  0  0  0
  -21.5675   15.5804   -1.9927 H   0  0  0  0  0  0
  -22.5928   14.6097   -4.0412 H   0  0  0  0  0  0
  -21.0874   13.6888   -4.3761 H   0  0  0  0  0  0
  -21.4617   12.4862   -2.1678 H   0  0  0  0  0  0
  -22.9702   14.1812   -1.1693 H   0  0  0  0  0  0
  -23.7431   12.5614   -1.2429 H   0  0  0  0  0  0
  -24.1958   13.8276   -2.4339 H   0  0  0  0  0  0
  -21.9963   11.5143   -4.3747 H   0  0  0  0  0  0
  -23.6257   12.2677   -4.3090 H   0  0  0  0  0  0
  -23.1729   11.0015   -3.1180 H   0  0  0  0  0  0
  -27.7963   26.1740   -6.5550 H   0  0  0  0  0  0
  1  2  1  0  0  0
  1 42  1  0  0  0
  1 43  1  0  0  0
  1 44  1  0  0  0
  2  3  1  0  0  0
  2  5  1  0  0  0
  2 45  1  0  0  0
  3  4  2  0  0  0
  3 15  1  0  0  0
  5  6  1  0  0  0
  5 46  1  0  0  0
  5 47  1  0  0  0
  6  7  2  0  0  0
  6  8  1  0  0  0
  7  9  1  0  0  0
  7 48  1  0  0  0
  8 10  2  0  0  0
  8 11  1  0  0  0
  9 10  1  0  0  0
  9 76  1  0  0  0
 10 12  1  0  0  0
 11 13  2  0  0  0
 11 49  1  0  0  0
 12 14  2  0  0  0
 12 50  1  0  0  0
 13 14  1  0  0  0
 13 51  1  0  0  0
 14 52  1  0  0  0
 15 16  1  0  0  0
 15 53  1  0  0  0
 16 17  1  0  0  0
 16 19  1  0  0  0
 16 54  1  0  0  0
 17 18  2  0  0  0
 17 24  1  0  0  0
 19 20  1  0  0  0
 19 55  1  0  0  0
 19 56  1  0  0  0
 20 21  1  0  0  0
 20 57  1  0  0  0
 20 58  1  0  0  0
 21 22  1  0  0  0
 21 23  2  0  0  0
 24 25  1  0  0  0
 24 59  1  0  0  0
 25 26  1  0  0  0
 25 28  1  0  0  0
 25 60  1  0  0  0
 26 27  2  0  0  0
 26 33  1  0  0  0
 28 29  1  0  0  0
 28 61  1  0  0  0
 28 62  1  0  0  0
 29 30  1  0  0  0
 29 63  1  0  0  0
 29 64  1  0  0  0
 30 31  2  0  0  0
 30 32  1  0  0  0
 33 34  1  0  0  0
 33 65  1  0  0  0
 34 35  1  0  0  0
 34 37  1  0  0  0
 34 66  1  0  0  0
 35 36  2  0  0  0
 35 41  1  0  0  0
 37 38  1  0  0  0
 37 67  1  0  0  0
 37 68  1  0  0  0
 38 39  1  0  0  0
 38 40  1  0  0  0
 38 69  1  0  0  0
 39 70  1  0  0  0
 39 71  1  0  0  0
 39 72  1  0  0  0
 40 73  1  0  0  0
 40 74  1  0  0  0
 40 75  1  0  0  0
M  CHG  5   1   1   9   1  22  -1  32  -1  41  -1
M  END
> <s_m_source_file>
../5azf_ligand.sdf

> <i_m_source_file_index>
1

> <s_epik_input>
W2NIXTFbY0hdW2NIXVtjSF1jKGMxMilbbkhdW2NIXWMyW0NIMl1bQ0BIXShbTkgzK10pQyg9TylbTkhdW0NAQEhdKFtDSDJdW0NIMl1DKD1PKVtPSF0pQyg9TylbTkhdW0NAQEhdKFtDSDJdW0NIMl1DKD1PKVtPSF0pQyg9TylbTkhdW0NASF0oQyg9TylbT0hdKVtDSDJdW0NIXShbQ0gzXSlbQ0gzXQ==

> <s_epik_cmdline>
J2VwaWtfYXBwJywgJy1pbWFlJywgJ2xpZ2FuZF9wcm8ubWFlJywgJy1vbWFlJywgJ2xpZ2FuZF9wcmVwLm1hZScsICctbXMnLCAnMScsICctcGgnLCAnNycsICctcGh0JywgJzAuNScsICctbnQn

> <r_epik_Ionization_Penalty>
  0.1890

> <r_epik_Ionization_Penalty_Charging>
  0.1890

> <r_epik_Ionization_Penalty_Neutral>
  0.0000

> <r_epik_State_Penalty>
  0.1749

> <r_epik_Charging_Adjusted_Penalty>
0.363909981078256

> <i_epik_Tot_Q>
-1

> <i_epik_Tot_abs_Q>
5

$$$$
