5bml_ligand
                    3D
 Schrodinger Suite 2020-3.
 43 45  0  0  1  0            999 V2000
   51.7520  107.6620   37.7850 C   0  0  0  0  0  0
   49.9670  107.8570   37.5130 S   0  0  0  0  0  0
   49.2620  106.9420   38.3600 O   0  0  0  0  0  0
   49.6770  109.2520   37.4180 O   0  0  0  0  0  0
   49.5840  107.3460   35.9840 N   0  0  0  0  0  0
   49.8280  106.0360   35.5790 C   0  0  0  0  0  0
   48.9440  104.9840   35.8970 C   0  0  0  0  0  0
   49.2230  103.6990   35.4440 C   0  0  0  0  0  0
   50.3960  103.4720   34.7160 C   0  0  0  0  0  0
   51.2860  104.5180   34.4220 C   0  0  0  0  0  0
   50.9940  105.8000   34.8420 C   0  0  0  0  0  0
   52.5350  104.3030   33.6100 C   0  0  0  0  0  0
   52.1690  104.4360   32.1580 C   0  0  0  0  0  0
   52.0400  105.5590   31.7070 O   0  0  0  0  0  0
   51.9590  103.3200   31.4010 N   0  0  0  0  0  0
   51.5940  103.3530   30.0280 C   0  0  0  0  0  0
   51.4270  102.2710   29.2580 C   0  0  0  0  0  0
   51.0100  102.5220   27.9550 C   0  0  0  0  0  0
   50.8440  103.8330   27.6810 C   0  0  0  0  0  0
   51.2500  104.8010   29.0740 S   0  0  0  0  0  0
   50.8370  101.4750   26.9000 C   0  0  0  0  0  0
   50.5070  101.8340   25.5740 C   0  0  0  0  0  0
   50.3680  100.8690   24.5960 C   0  0  0  0  0  0
   50.5750   99.5990   24.8940 N   0  0  0  0  0  0
   50.9090   99.2170   26.1260 C   0  0  0  0  0  0
   51.0740  100.1270   27.1560 C   0  0  0  0  0  0
   51.0720   97.9030   26.3920 F   0  0  0  0  0  0
   52.0074  108.0010   38.7998 H   0  0  0  0  0  0
   52.3032  108.2642   37.0477 H   0  0  0  0  0  0
   52.0265  106.6028   37.6722 H   0  0  0  0  0  0
   49.1285  108.0460   35.2681 H   0  0  0  0  0  0
   48.0511  105.1762   36.4919 H   0  0  0  0  0  0
   48.5363  102.8789   35.6536 H   0  0  0  0  0  0
   50.6236  102.4637   34.3702 H   0  0  0  0  0  0
   51.6670  106.6229   34.6013 H   0  0  0  0  0  0
   53.2856  105.0587   33.8848 H   0  0  0  0  0  0
   52.9352  103.2985   33.8119 H   0  0  0  0  0  0
   52.0707  102.3220   31.8498 H   0  0  0  0  0  0
   51.6058  101.2611   29.6272 H   0  0  0  0  0  0
   50.5043  104.2306   26.7246 H   0  0  0  0  0  0
   50.3606  102.8839   25.3202 H   0  0  0  0  0  0
   50.0885  101.1543   23.5818 H   0  0  0  0  0  0
   51.3831   99.7951   28.1472 H   0  0  0  0  0  0
  1  2  1  0  0  0
  1 28  1  0  0  0
  1 29  1  0  0  0
  1 30  1  0  0  0
  2  3  2  0  0  0
  2  4  2  0  0  0
  2  5  1  0  0  0
  5  6  1  0  0  0
  5 31  1  0  0  0
  6  7  2  0  0  0
  6 11  1  0  0  0
  7  8  1  0  0  0
  7 32  1  0  0  0
  8  9  2  0  0  0
  8 33  1  0  0  0
  9 10  1  0  0  0
  9 34  1  0  0  0
 10 11  2  0  0  0
 10 12  1  0  0  0
 11 35  1  0  0  0
 12 13  1  0  0  0
 12 36  1  0  0  0
 12 37  1  0  0  0
 13 14  2  0  0  0
 13 15  1  0  0  0
 15 16  1  0  0  0
 15 38  1  0  0  0
 16 17  2  0  0  0
 16 20  1  0  0  0
 17 18  1  0  0  0
 17 39  1  0  0  0
 18 19  2  0  0  0
 18 21  1  0  0  0
 19 20  1  0  0  0
 19 40  1  0  0  0
 21 22  2  0  0  0
 21 26  1  0  0  0
 22 23  1  0  0  0
 22 41  1  0  0  0
 23 24  2  0  0  0
 23 42  1  0  0  0
 24 25  1  0  0  0
 25 26  2  0  0  0
 25 27  1  0  0  0
 26 43  1  0  0  0
M  END
> <s_m_source_file>
../5bml_ligand.sdf

> <i_m_source_file_index>
1

> <s_epik_input>
W0NIM11TKD1PKSg9TylbTkhdYzFbY0hdW2NIXVtjSF1jKFtjSF0xKVtDSDJdQyg9TylbTkhdYzJbY0hdYyhbY0hdczIpLWMzW2NIXVtjSF1uYyhGKVtjSF0z

> <s_epik_cmdline>
J2VwaWtfYXBwJywgJy1pbWFlJywgJ2xpZ2FuZF9wcm8ubWFlJywgJy1vbWFlJywgJ2xpZ2FuZF9wcmVwLm1hZScsICctbXMnLCAnMScsICctcGgnLCAnNycsICctcGh0JywgJzAuNScsICctbnQn

> <r_epik_Ionization_Penalty>
  0.0184

> <r_epik_Ionization_Penalty_Charging>
  0.0000

> <r_epik_Ionization_Penalty_Neutral>
  0.0184

> <r_epik_State_Penalty>
  0.0146

> <r_epik_Charging_Adjusted_Penalty>
0.0146189585242986

> <i_epik_Tot_Q>
0

> <i_epik_Tot_abs_Q>
0

$$$$
