5bms_ligand
                    3D
 Schrodinger Suite 2020-3.
 44 48  0  0  1  0            999 V2000
  -32.4630   15.6050  -11.2790 C   0  0  0  0  0  0
  -33.3170   15.7740  -12.3800 C   0  0  0  0  0  0
  -33.9540   14.6750  -12.9320 C   0  0  0  0  0  0
  -34.8780   14.8300  -14.1170 C   0  0  0  0  0  0
  -37.0590   11.4770  -15.2010 C   0  0  0  0  0  0
  -34.0720   11.3050  -16.2490 C   0  0  0  0  0  0
  -31.7050   11.6170  -17.1930 C   0  0  0  0  0  0
  -31.6110   13.1420  -17.2640 C   0  0  0  0  0  0
  -33.7440   13.4090  -12.4020 C   0  0  0  0  0  0
  -32.9060   13.2290  -11.3200 C   0  0  0  0  0  0
  -32.2590   14.3190  -10.7480 C   0  0  0  0  0  0
  -36.2850   14.6550  -13.7280 N   0  0  0  0  0  0
  -37.0030   13.5300  -14.1220 C   0  0  0  0  0  0
  -38.2870   13.4350  -13.7970 N   0  0  0  0  0  0
  -39.0080   12.3780  -14.1500 C   0  0  0  0  0  0
  -38.4120   11.3600  -14.8670 C   0  0  0  0  0  0
  -36.3990   12.5680  -14.8110 N   0  0  0  0  0  0
  -36.4500   10.4480  -15.9230 N   0  0  0  0  0  0
  -35.1890   10.5030  -16.5590 C   0  0  0  0  0  0
  -33.0820   11.0060  -17.1290 C   0  0  0  0  0  0
  -33.5380   10.0520  -17.9600 N   0  3  0  0  0  0
  -34.8500    9.7540  -17.5810 N   0  0  0  0  0  0
  -31.2170   12.4100  -15.9780 C   0  0  0  0  0  0
  -33.5610   17.3690  -13.0250 Cl  0  0  0  0  0  0
  -31.7160   16.4630  -10.5310 N   0  0  0  0  0  0
  -31.0860   15.8040   -9.6030 C   0  0  0  0  0  0
  -31.3840   14.4780   -9.6890 N   0  3  0  0  0  0
  -34.7576   15.8354  -14.5468 H   0  0  0  0  0  0
  -34.6298   14.0743  -14.8768 H   0  0  0  0  0  0
  -34.0132   12.0372  -15.4437 H   0  0  0  0  0  0
  -31.3141   10.7777  -17.7870 H   0  0  0  0  0  0
  -30.9157   13.4295  -18.0664 H   0  0  0  0  0  0
  -32.6061   13.5614  -17.4735 H   0  0  0  0  0  0
  -34.2459   12.5487  -12.8448 H   0  0  0  0  0  0
  -32.7510   12.2299  -10.9128 H   0  0  0  0  0  0
  -36.7857   15.4199  -13.1163 H   0  0  0  0  0  0
  -40.0611   12.3144  -13.8762 H   0  0  0  0  0  0
  -38.9846   10.4823  -15.1669 H   0  0  0  0  0  0
  -36.9598    9.4800  -16.0375 H   0  0  0  0  0  0
  -31.8869   12.2239  -15.1256 H   0  0  0  0  0  0
  -30.1964   12.0921  -15.7185 H   0  0  0  0  0  0
  -30.4298   16.3368   -8.8991 H   0  0  0  0  0  0
  -32.8889    9.6608  -18.7572 H   0  0  0  0  0  0
  -31.0657   13.6035   -9.1025 H   0  0  0  0  0  0
  1  2  2  0  0  0
  1 11  1  0  0  0
  1 25  1  0  0  0
  2  3  1  0  0  0
  2 24  1  0  0  0
  3  4  1  0  0  0
  3  9  2  0  0  0
  4 12  1  0  0  0
  4 28  1  0  0  0
  4 29  1  0  0  0
  5 16  2  0  0  0
  5 17  1  0  0  0
  5 18  1  0  0  0
  6 19  2  0  0  0
  6 20  1  0  0  0
  6 30  1  0  0  0
  7  8  1  0  0  0
  7 20  1  0  0  0
  7 23  1  0  0  0
  7 31  1  0  0  0
  8 23  1  0  0  0
  8 32  1  0  0  0
  8 33  1  0  0  0
  9 10  1  0  0  0
  9 34  1  0  0  0
 10 11  2  0  0  0
 10 35  1  0  0  0
 11 27  1  0  0  0
 12 13  1  0  0  0
 12 36  1  0  0  0
 13 14  1  0  0  0
 13 17  2  0  0  0
 14 15  2  0  0  0
 15 16  1  0  0  0
 15 37  1  0  0  0
 16 38  1  0  0  0
 18 19  1  0  0  0
 18 39  1  0  0  0
 19 22  1  0  0  0
 20 21  2  0  0  0
 21 22  1  0  0  0
 21 43  1  0  0  0
 23 40  1  0  0  0
 23 41  1  0  0  0
 25 26  2  0  0  0
 26 27  1  0  0  0
 26 42  1  0  0  0
 27 44  1  0  0  0
M  CHG  2  21   1  27   1
M  END
> <s_m_source_file>
../5bms_ligand.sdf

> <i_m_source_file_index>
1

> <s_epik_input>
bjFbY0hdW25IXWMoYzEyKVtjSF1bY0hdYyhjMkNsKVtDSDJdW05IXWMobjMpbltjSF1bY0hdYzNbTkhdYzRbY0hdYyhuW25IXTQpW0NIXTVbQ0gyXVtDSDJdNQ==

> <s_epik_cmdline>
J2VwaWtfYXBwJywgJy1pbWFlJywgJ2xpZ2FuZF9wcm8ubWFlJywgJy1vbWFlJywgJ2xpZ2FuZF9wcmVwLm1hZScsICctbXMnLCAnMScsICctcGgnLCAnNycsICctcGh0JywgJzAuNScsICctbnQn

> <r_epik_Ionization_Penalty>
  0.0042

> <r_epik_Ionization_Penalty_Charging>
  0.0000

> <r_epik_Ionization_Penalty_Neutral>
  0.0042

> <r_epik_State_Penalty>
  0.0001

> <r_epik_Charging_Adjusted_Penalty>
7.48036210722544e-05

> <i_epik_Tot_Q>
2

> <i_epik_Tot_abs_Q>
2

> <s_epik_Chemistry_Notes>
This compound has an imine and may undergo hydrolysis.

$$$$
