5bnj_ligand
                    3D
 Schrodinger Suite 2020-3.
 55 59  0  0  1  0            999 V2000
   37.5450   55.8820   45.9430 C   0  0  0  0  0  0
   38.8030   56.9580   47.8320 C   0  0  0  0  0  0
   39.7420   56.5680   48.7420 C   0  0  0  0  0  0
   40.0140   55.2090   48.4870 C   0  0  0  0  0  0
   40.3650   57.4170   49.8010 C   0  0  0  0  0  0
   40.4500   58.8130   49.6500 C   0  0  0  0  0  0
   41.4690   57.6060   51.9350 C   0  0  0  0  0  0
   40.8870   56.8250   50.9580 C   0  0  0  0  0  0
   43.5310   61.2680   54.7360 C   0  0  0  0  0  0
   42.3710   60.6310   55.1280 C   0  0  0  0  0  0
   41.6590   59.8610   54.1940 C   0  0  0  0  0  0
   40.5660   58.0030   55.4170 C   0  0  0  0  0  0
   38.0210   58.1310   55.6090 C   0  0  0  0  0  0
   37.6330   56.9590   54.6780 C   0  0  0  0  0  0
   36.9070   58.1590   56.6250 C   0  0  0  0  0  0
   36.6290   59.1020   57.3350 O   0  0  0  0  0  0
   39.2420   59.4320   53.8520 C   0  0  0  0  0  0
   38.5060   55.9010   47.0500 N   0  0  0  0  0  0
   39.2780   54.8210   47.4800 N   0  0  0  0  0  0
   41.0350   59.5970   50.6330 C   0  0  0  0  0  0
   41.5470   58.9960   51.7860 C   0  0  0  0  0  0
   42.1820   59.7880   52.8670 C   0  0  0  0  0  0
   43.3710   60.4680   52.5710 C   0  0  0  0  0  0
   43.9960   61.1760   53.4960 N   0  3  0  0  0  0
   41.8370   60.8110   56.7760 Cl  0  0  0  0  0  0
   40.4830   59.2300   54.6120 N   0  0  0  0  0  0
   39.3450   57.8860   56.3410 C   0  0  0  0  0  0
   36.8520   56.0530   55.6500 C   0  0  0  0  0  0
   36.2680   56.9740   56.6320 N   0  0  0  0  0  0
   38.0660   59.4470   54.8310 C   0  0  0  0  0  0
   37.0878   56.8769   45.8373 H   0  0  0  0  0  0
   36.7614   55.1385   46.1505 H   0  0  0  0  0  0
   38.0649   55.6164   45.0107 H   0  0  0  0  0  0
   38.3675   57.9540   47.7512 H   0  0  0  0  0  0
   40.7196   54.5865   49.0373 H   0  0  0  0  0  0
   40.0519   59.2834   48.7509 H   0  0  0  0  0  0
   41.8722   57.1362   52.8321 H   0  0  0  0  0  0
   40.8332   55.7440   51.0869 H   0  0  0  0  0  0
   44.0807   61.8633   55.4651 H   0  0  0  0  0  0
   40.5961   57.1285   54.7504 H   0  0  0  0  0  0
   41.4787   58.0280   56.0305 H   0  0  0  0  0  0
   37.0217   57.3386   53.8460 H   0  0  0  0  0  0
   38.5447   56.4903   54.2791 H   0  0  0  0  0  0
   39.2933   60.3901   53.3141 H   0  0  0  0  0  0
   39.1169   58.6121   53.1294 H   0  0  0  0  0  0
   41.0952   60.6780   50.5067 H   0  0  0  0  0  0
   43.7860   60.4124   51.5646 H   0  0  0  0  0  0
   39.3079   56.8752   56.7734 H   0  0  0  0  0  0
   39.4244   58.6279   57.1493 H   0  0  0  0  0  0
   36.0775   55.5025   55.0959 H   0  0  0  0  0  0
   37.5433   55.3388   56.1212 H   0  0  0  0  0  0
   35.4182   56.6511   57.2513 H   0  0  0  0  0  0
   37.1282   59.5737   54.2702 H   0  0  0  0  0  0
   38.1890   60.2843   55.5336 H   0  0  0  0  0  0
   44.9238   61.6967   53.2165 H   0  0  0  0  0  0
  1 18  1  0  0  0
  1 31  1  0  0  0
  1 32  1  0  0  0
  1 33  1  0  0  0
  2  3  2  0  0  0
  2 18  1  0  0  0
  2 34  1  0  0  0
  3  4  1  0  0  0
  3  5  1  0  0  0
  4 19  2  0  0  0
  4 35  1  0  0  0
  5  6  2  0  0  0
  5  8  1  0  0  0
  6 20  1  0  0  0
  6 36  1  0  0  0
  7  8  2  0  0  0
  7 21  1  0  0  0
  7 37  1  0  0  0
  8 38  1  0  0  0
  9 10  2  0  0  0
  9 24  1  0  0  0
  9 39  1  0  0  0
 10 11  1  0  0  0
 10 25  1  0  0  0
 11 22  2  0  0  0
 11 26  1  0  0  0
 12 26  1  0  0  0
 12 27  1  0  0  0
 12 40  1  0  0  0
 12 41  1  0  0  0
 13 14  1  0  0  0
 13 15  1  0  0  0
 13 27  1  0  0  0
 13 30  1  0  0  0
 14 28  1  0  0  0
 14 42  1  0  0  0
 14 43  1  0  0  0
 15 16  2  0  0  0
 15 29  1  0  0  0
 17 26  1  0  0  0
 17 30  1  0  0  0
 17 44  1  0  0  0
 17 45  1  0  0  0
 18 19  1  0  0  0
 20 21  2  0  0  0
 20 46  1  0  0  0
 21 22  1  0  0  0
 22 23  1  0  0  0
 23 24  2  0  0  0
 23 47  1  0  0  0
 24 55  1  0  0  0
 27 48  1  0  0  0
 27 49  1  0  0  0
 28 29  1  0  0  0
 28 50  1  0  0  0
 28 51  1  0  0  0
 29 52  1  0  0  0
 30 53  1  0  0  0
 30 54  1  0  0  0
M  CHG  1  24   1
M  END
> <s_m_source_file>
../5bnj_ligand.sdf

> <i_m_source_file_index>
1

> <s_epik_input>
W2NIXTFubihbQ0gzXSlbY0hdYzEtYzJbY0hdW2NIXWMoW2NIXVtjSF0yKS1jKFtjSF1uW2NIXWMzQ2wpYzNOKFtDSDJdW0NIMl00KVtDSDJdW0NIMl1DNDVbQ0gyXVtDSDJdW05IXUM1PU8=

> <s_epik_cmdline>
J2VwaWtfYXBwJywgJy1pbWFlJywgJ2xpZ2FuZF9wcm8ubWFlJywgJy1vbWFlJywgJ2xpZ2FuZF9wcmVwLm1hZScsICctbXMnLCAnMScsICctcGgnLCAnNycsICctcGh0JywgJzAuNScsICctbnQn

> <r_lp_tautomer_probability>
0.9999999999368

> <r_epik_Ionization_Penalty>
  0.2927

> <r_epik_Ionization_Penalty_Charging>
  0.2927

> <r_epik_Ionization_Penalty_Neutral>
  0.0001

> <r_epik_State_Penalty>
  0.2858

> <r_epik_Charging_Adjusted_Penalty>
0.578475879269758

> <i_epik_Tot_Q>
1

> <i_epik_Tot_abs_Q>
1

$$$$
