5bot_ligand
                    3D
 Schrodinger Suite 2020-3.
 29 30  0  0  1  0            999 V2000
   -7.1070   27.4260   52.3360 C   0  0  0  0  0  0
  -11.0830   27.4880   46.0100 C   0  0  0  0  0  0
   -7.2700   27.5800   54.7090 C   0  0  0  0  0  0
   -6.6920   26.4800   55.6050 C   0  0  0  0  0  0
   -9.1400   27.3810   49.2490 C   0  0  0  0  0  0
   -8.0350   28.1820   48.8900 C   0  0  0  0  0  0
   -8.9430   26.9710   50.6050 C   0  0  0  0  0  0
  -10.1400   27.1550   48.2970 C   0  0  0  0  0  0
   -7.2160   28.2590   49.9820 N   0  3  0  0  0  0
   -7.9500   28.7370   47.6160 C   0  0  0  0  0  0
   -7.7550   27.5140   51.0170 C   0  0  0  0  0  0
  -10.0280   27.7060   47.0220 C   0  0  0  0  0  0
   -8.9310   28.5110   46.6980 C   0  0  0  0  0  0
   -7.7460   27.0060   53.4520 O   0  0  0  0  0  0
   -5.9640   27.8220   52.4440 O   0  0  0  0  0  0
  -12.2830   28.0810   46.1710 N   0  0  0  0  0  0
  -10.8870   26.7690   45.0510 O   0  0  0  0  0  0
   -8.1105   28.0683   55.2238 H   0  0  0  0  0  0
   -6.4898   28.3247   54.4930 H   0  0  0  0  0  0
   -6.3373   26.9232   56.5472 H   0  0  0  0  0  0
   -5.8515   25.9917   55.0902 H   0  0  0  0  0  0
   -7.4723   25.7353   55.8210 H   0  0  0  0  0  0
   -9.5342   26.3526   51.2964 H   0  0  0  0  0  0
  -11.0078   26.5471   48.5530 H   0  0  0  0  0  0
   -7.0930   29.3564   47.3513 H   0  0  0  0  0  0
   -8.8607   28.9594   45.7070 H   0  0  0  0  0  0
  -12.4625   28.7326   47.0389 H   0  0  0  0  0  0
  -13.0826   27.9133   45.4345 H   0  0  0  0  0  0
   -6.2912   28.8527   49.9351 H   0  0  0  0  0  0
  1 11  1  0  0  0
  1 14  1  0  0  0
  1 15  2  0  0  0
  2 12  1  0  0  0
  2 16  1  0  0  0
  2 17  2  0  0  0
  3  4  1  0  0  0
  3 14  1  0  0  0
  3 18  1  0  0  0
  3 19  1  0  0  0
  4 20  1  0  0  0
  4 21  1  0  0  0
  4 22  1  0  0  0
  5  6  2  0  0  0
  5  7  1  0  0  0
  5  8  1  0  0  0
  6  9  1  0  0  0
  6 10  1  0  0  0
  7 11  2  0  0  0
  7 23  1  0  0  0
  8 12  2  0  0  0
  8 24  1  0  0  0
  9 11  1  0  0  0
  9 29  1  0  0  0
 10 13  2  0  0  0
 10 25  1  0  0  0
 12 13  1  0  0  0
 13 26  1  0  0  0
 16 27  1  0  0  0
 16 28  1  0  0  0
M  CHG  1   9   1
M  END
> <s_m_source_file>
../5bot_ligand.sdf

> <i_m_source_file_index>
1

> <s_epik_input>
W0NIM11bQ0gyXU9DKD1PKWMoW2NIXTEpW25IXWMoYzEyKVtjSF1bY0hdYyhbY0hdMilDKD1PKVtOSDJd

> <s_epik_cmdline>
J2VwaWtfYXBwJywgJy1pbWFlJywgJ2xpZ2FuZF9wcm8ubWFlJywgJy1vbWFlJywgJ2xpZ2FuZF9wcmVwLm1hZScsICctbXMnLCAnMScsICctcGgnLCAnNycsICctcGh0JywgJzAuNScsICctbnQn

> <r_lp_tautomer_probability>
1

> <r_epik_Ionization_Penalty>
  0.0000

> <r_epik_Ionization_Penalty_Charging>
  0.0000

> <r_epik_Ionization_Penalty_Neutral>
  0.0000

> <r_epik_State_Penalty>
 -0.0000

> <r_epik_Charging_Adjusted_Penalty>
0

> <i_epik_Tot_Q>
1

> <i_epik_Tot_abs_Q>
1

> <s_epik_Chemistry_Notes>
This compound has an ester and may undergo hydrolysis at high or low pH.

$$$$
