5boy_ligand
                    3D
 Schrodinger Suite 2020-3.
 35 37  0  0  1  0            999 V2000
  -10.3190   26.8500   46.3440 C   0  0  0  0  0  0
   -9.1790   27.6450   46.1320 C   0  0  0  0  0  0
   -8.2500   27.7930   47.1220 C   0  0  0  0  0  0
   -9.5790   26.3550   48.5760 C   0  0  0  0  0  0
   -7.6970   27.1160   49.5020 N   0  3  0  0  0  0
   -9.4890   25.8380   49.8940 C   0  0  0  0  0  0
   -7.8450   26.0740   51.7850 C   0  0  0  0  0  0
   -6.4430   27.0800   54.6490 C   0  0  0  0  0  0
  -12.6750   26.7320   45.4200 C   0  0  0  0  0  0
  -11.3230   26.6700   45.2720 C   0  0  0  0  0  0
  -12.2920   26.2940   43.3360 C   0  0  0  0  0  0
   -9.7840   26.2120   43.2940 C   0  0  0  0  0  0
   -8.4100   25.2850   52.5170 O   0  0  0  0  0  0
   -6.7940   26.7660   52.2550 O   0  0  0  0  0  0
   -7.0980   27.6310   53.3830 C   0  0  0  0  0  0
   -8.3370   26.3200   50.4280 C   0  0  0  0  0  0
   -8.4380   27.1540   48.3500 C   0  0  0  0  0  0
  -10.5140   26.2000   47.5570 C   0  0  0  0  0  0
  -11.0880   26.3740   43.9440 N   0  0  0  0  0  0
  -13.2280   26.5010   44.2230 N   0  0  0  0  0  0
   -9.0361   28.1450   45.1741 H   0  0  0  0  0  0
   -7.3653   28.4073   46.9547 H   0  0  0  0  0  0
  -10.1370   25.1777   50.4891 H   0  0  0  0  0  0
   -6.6764   27.7383   55.4988 H   0  0  0  0  0  0
   -5.3530   27.0354   54.5082 H   0  0  0  0  0  0
   -6.8282   26.0697   54.8512 H   0  0  0  0  0  0
  -13.2112   26.9337   46.3473 H   0  0  0  0  0  0
  -12.4554   26.0900   42.2778 H   0  0  0  0  0  0
   -8.9849   26.3303   44.0407 H   0  0  0  0  0  0
   -9.6683   26.9741   42.5092 H   0  0  0  0  0  0
   -9.7204   25.2101   42.8444 H   0  0  0  0  0  0
   -8.1880   27.6756   53.5238 H   0  0  0  0  0  0
   -6.7128   28.6413   53.1808 H   0  0  0  0  0  0
  -11.3929   25.5734   47.7090 H   0  0  0  0  0  0
   -6.7416   27.5976   49.7575 H   0  0  0  0  0  0
  1  2  2  0  0  0
  1 10  1  0  0  0
  1 18  1  0  0  0
  2  3  1  0  0  0
  2 21  1  0  0  0
  3 17  2  0  0  0
  3 22  1  0  0  0
  4  6  1  0  0  0
  4 17  1  0  0  0
  4 18  2  0  0  0
  5 16  1  0  0  0
  5 17  1  0  0  0
  5 35  1  0  0  0
  6 16  2  0  0  0
  6 23  1  0  0  0
  7 13  2  0  0  0
  7 14  1  0  0  0
  7 16  1  0  0  0
  8 15  1  0  0  0
  8 24  1  0  0  0
  8 25  1  0  0  0
  8 26  1  0  0  0
  9 10  2  0  0  0
  9 20  1  0  0  0
  9 27  1  0  0  0
 10 19  1  0  0  0
 11 19  1  0  0  0
 11 20  2  0  0  0
 11 28  1  0  0  0
 12 19  1  0  0  0
 12 29  1  0  0  0
 12 30  1  0  0  0
 12 31  1  0  0  0
 14 15  1  0  0  0
 15 32  1  0  0  0
 15 33  1  0  0  0
 18 34  1  0  0  0
M  CHG  1   5   1
M  END
> <s_m_source_file>
../5boy_ligand.sdf

> <i_m_source_file_index>
1

> <s_epik_input>
W0NIM11uMVtjSF1uW2NIXWMxLWMoW2NIXTIpW2NIXVtjSF1jKGMyMylbbkhdYyhbY0hdMylDKD1PKU9bQ0gyXVtDSDNd

> <s_epik_cmdline>
J2VwaWtfYXBwJywgJy1pbWFlJywgJ2xpZ2FuZF9wcm8ubWFlJywgJy1vbWFlJywgJ2xpZ2FuZF9wcmVwLm1hZScsICctbXMnLCAnMScsICctcGgnLCAnNycsICctcGh0JywgJzAuNScsICctbnQn

> <r_lp_tautomer_probability>
1

> <r_epik_Ionization_Penalty>
  0.2804

> <r_epik_Ionization_Penalty_Charging>
  0.2804

> <r_epik_Ionization_Penalty_Neutral>
  0.0000

> <r_epik_State_Penalty>
  0.2730

> <r_epik_Charging_Adjusted_Penalty>
0.55344572467028

> <i_epik_Tot_Q>
1

> <i_epik_Tot_abs_Q>
1

> <s_epik_Chemistry_Notes>
This compound has an ester and may undergo hydrolysis at high or low pH.

$$$$
