5bpa_ligand
                    3D
 Schrodinger Suite 2020-3.
 54 57  0  0  1  0            999 V2000
  -10.7770   23.6220   47.6710 C   0  0  0  0  0  0
  -10.6930   24.1290   46.3820 C   0  0  0  0  0  0
   -9.5690   24.8600   45.9820 C   0  0  0  0  0  0
   -8.5630   25.1040   46.8560 C   0  0  0  0  0  0
   -9.7470   23.8650   48.5760 C   0  0  0  0  0  0
   -8.6310   24.6110   48.1600 C   0  0  0  0  0  0
   -8.3230   24.0130   50.2810 C   0  0  0  0  0  0
   -9.5270   23.5020   49.9310 C   0  0  0  0  0  0
   -7.7040   23.9200   51.5910 C   0  0  0  0  0  0
   -7.4930   22.9320   53.6840 C   0  0  0  0  0  0
   -7.9030   23.6370   54.9740 C   0  0  0  0  0  0
  -11.7850   23.8380   45.4370 C   0  0  0  0  0  0
  -13.7400   23.5110   44.4980 C   0  0  0  0  0  0
  -13.1250   23.9070   45.6960 C   0  0  0  0  0  0
  -10.3700   23.1780   43.4690 C   0  0  0  0  0  0
  -15.1890   23.3920   44.2720 C   0  0  0  0  0  0
  -15.9680   23.9960   44.9810 O   0  0  0  0  0  0
  -18.9870   16.5710   45.4030 O   0  5  0  0  0  0
  -18.8530   17.7550   46.0240 C   0  0  0  0  0  0
  -19.1220   17.8450   47.2070 O   0  0  0  0  0  0
  -18.3890   18.9320   45.2570 C   0  0  0  0  0  0
  -17.9820   20.0890   45.9250 C   0  0  0  0  0  0
  -17.5530   21.1810   45.1970 C   0  0  0  0  0  0
  -18.3570   18.8970   43.8590 C   0  0  0  0  0  0
  -17.9280   20.0010   43.1440 C   0  0  0  0  0  0
  -17.5250   21.1430   43.8110 C   0  0  0  0  0  0
  -17.0510   22.3690   43.0550 C   0  0  0  0  0  0
  -15.6190   22.5500   43.3080 N   0  0  0  0  0  0
  -12.7910   23.2200   43.6240 N   0  0  0  0  0  0
  -11.6450   23.4000   44.1530 N   0  0  0  0  0  0
   -7.7840   24.7020   49.2180 N   0  3  0  0  0  0
   -6.5920   24.3710   51.7820 O   0  0  0  0  0  0
   -8.3700   23.3710   52.6170 O   0  0  0  0  0  0
  -11.6451   23.0364   47.9736 H   0  0  0  0  0  0
   -9.5023   25.2355   44.9609 H   0  0  0  0  0  0
   -7.6980   25.6870   46.5399 H   0  0  0  0  0  0
  -10.1167   22.9320   50.6641 H   0  0  0  0  0  0
   -6.4512   23.1883   53.4412 H   0  0  0  0  0  0
   -7.5814   21.8436   53.8169 H   0  0  0  0  0  0
   -7.2451   23.3131   55.7939 H   0  0  0  0  0  0
   -8.9448   23.3806   55.2168 H   0  0  0  0  0  0
   -7.8146   24.7254   54.8411 H   0  0  0  0  0  0
  -13.6089   24.2037   46.6265 H   0  0  0  0  0  0
   -9.5412   23.4087   44.1544 H   0  0  0  0  0  0
  -10.3087   23.8317   42.5864 H   0  0  0  0  0  0
  -10.3021   22.1268   43.1522 H   0  0  0  0  0  0
  -18.0029   20.1297   47.0140 H   0  0  0  0  0  0
  -17.2326   22.0834   45.7177 H   0  0  0  0  0  0
  -18.6712   17.9967   43.3310 H   0  0  0  0  0  0
  -17.9077   19.9704   42.0546 H   0  0  0  0  0  0
  -17.2258   22.2262   41.9784 H   0  0  0  0  0  0
  -17.6072   23.2520   43.4028 H   0  0  0  0  0  0
  -14.8805   21.9966   42.7094 H   0  0  0  0  0  0
   -6.8436   25.2646   49.1228 H   0  0  0  0  0  0
  1  2  2  0  0  0
  1  5  1  0  0  0
  1 34  1  0  0  0
  2  3  1  0  0  0
  2 12  1  0  0  0
  3  4  2  0  0  0
  3 35  1  0  0  0
  4  6  1  0  0  0
  4 36  1  0  0  0
  5  6  2  0  0  0
  5  8  1  0  0  0
  6 31  1  0  0  0
  7  8  2  0  0  0
  7  9  1  0  0  0
  7 31  1  0  0  0
  8 37  1  0  0  0
  9 32  2  0  0  0
  9 33  1  0  0  0
 10 11  1  0  0  0
 10 33  1  0  0  0
 10 38  1  0  0  0
 10 39  1  0  0  0
 11 40  1  0  0  0
 11 41  1  0  0  0
 11 42  1  0  0  0
 12 14  2  0  0  0
 12 30  1  0  0  0
 13 14  1  0  0  0
 13 16  1  0  0  0
 13 29  2  0  0  0
 14 43  1  0  0  0
 15 30  1  0  0  0
 15 44  1  0  0  0
 15 45  1  0  0  0
 15 46  1  0  0  0
 16 17  2  0  0  0
 16 28  1  0  0  0
 18 19  1  0  0  0
 19 20  2  0  0  0
 19 21  1  0  0  0
 21 22  2  0  0  0
 21 24  1  0  0  0
 22 23  1  0  0  0
 22 47  1  0  0  0
 23 26  2  0  0  0
 23 48  1  0  0  0
 24 25  2  0  0  0
 24 49  1  0  0  0
 25 26  1  0  0  0
 25 50  1  0  0  0
 26 27  1  0  0  0
 27 28  1  0  0  0
 27 51  1  0  0  0
 27 52  1  0  0  0
 28 53  1  0  0  0
 29 30  1  0  0  0
 31 54  1  0  0  0
M  CHG  2  18  -1  31   1
M  END
> <s_m_source_file>
../5bpa_ligand.sdf

> <i_m_source_file_index>
1

> <s_epik_input>
W0NIM11bQ0gyXU9DKD1PKWMoW2NIXTEpW25IXWMoYzEyKVtjSF1bY0hdYyhbY0hdMiktYzNbY0hdYyhubjNbQ0gzXSlDKD1PKVtOSF1bQ0gyXWMoW2NIXVtjSF00KVtjSF1bY0hdYzRDKD1PKVtPSF0=

> <s_epik_cmdline>
J2VwaWtfYXBwJywgJy1pbWFlJywgJ2xpZ2FuZF9wcm8ubWFlJywgJy1vbWFlJywgJ2xpZ2FuZF9wcmVwLm1hZScsICctbXMnLCAnMScsICctcGgnLCAnNycsICctcGh0JywgJzAuNScsICctbnQn

> <r_lp_tautomer_probability>
1

> <r_epik_Ionization_Penalty>
  0.0009

> <r_epik_Ionization_Penalty_Charging>
  0.0008

> <r_epik_Ionization_Penalty_Neutral>
  0.0000

> <r_epik_State_Penalty>
 -0.0000

> <r_epik_Charging_Adjusted_Penalty>
0.000847796785748169

> <i_epik_Tot_Q>
0

> <i_epik_Tot_abs_Q>
2

> <s_epik_Chemistry_Notes>
This compound has an ester and may undergo hydrolysis at high or low pH.

$$$$
