5bpe_ligand
                    3D
 Schrodinger Suite 2020-3.
 70 72  0  0  1  0            999 V2000
   14.7360   11.0470   25.2440 C   0  0  0  0  0  0
   15.3980   10.0270   25.1550 O   0  0  0  0  0  0
   14.7180   11.8260   26.5560 C   0  0  0  0  0  0
   13.6050   11.4120   27.5110 C   0  0  0  0  0  0
   13.7710   11.7670   28.9880 C   0  0  0  0  0  0
   13.0660   11.0330   29.9520 C   0  0  0  0  0  0
   13.1740   11.3250   31.3150 C   0  0  0  0  0  0
   14.0040   12.3700   31.7210 C   0  0  0  0  0  0
   14.7120   13.1090   30.7680 C   0  0  0  0  0  0
   14.5980   12.8100   29.4110 C   0  0  0  0  0  0
   13.9960   11.5110   24.1120 N   0  0  0  0  0  0
   13.9900   10.8080   22.8630 C   0  0  2  0  0  0
   15.3040   10.9520   22.1330 C   0  0  0  0  0  0
   15.7780   12.0300   21.8640 O   0  0  0  0  0  0
   12.9340   11.3530   21.9190 C   0  0  0  0  0  0
   11.5350   11.1610   22.4410 C   0  0  0  0  0  0
   10.6910   12.2600   22.5740 C   0  0  0  0  0  0
   11.1100    9.8850   22.8000 C   0  0  0  0  0  0
    9.4030   12.0850   23.0760 C   0  0  0  0  0  0
    9.8210    9.6980   23.2900 C   0  0  0  0  0  0
    8.9760   10.7970   23.4280 C   0  0  0  0  0  0
   19.1740   11.2200   25.0250 C   0  0  0  0  0  0
   17.2180   10.0360   21.1070 C   0  0  1  0  0  0
   18.7540   10.8080   23.6230 C   0  0  0  0  0  0
   19.4140    8.4890   24.1390 C   0  0  3  0  0  0
   18.2170    9.0610   21.9840 C   0  0  0  0  0  0
   18.1190    9.6530   18.9050 C   0  0  0  0  0  0
   16.9050    9.9440   19.6520 C   0  0  2  0  0  0
   18.4870    9.5260   23.4590 C   0  0  2  0  0  0
   20.3910   10.4080   25.4830 C   0  0  0  0  0  0
   18.9960    9.4790   18.3530 N   0  0  0  0  0  0
   16.0250    9.8180   21.7330 N   0  0  0  0  0  0
   20.1210    8.9680   25.3120 N   0  3  0  0  0  0
   16.2960   11.1040   19.2130 O   0  0  0  0  0  0
   19.5640    7.2780   23.6230 O   0  0  0  0  0  0
   15.6706   11.6754   27.0849 H   0  0  0  0  0  0
   14.5812   12.8968   26.3448 H   0  0  0  0  0  0
   12.6620   11.8873   27.2030 H   0  0  0  0  0  0
   13.4893   10.3184   27.4872 H   0  0  0  0  0  0
   12.4191   10.2163   29.6317 H   0  0  0  0  0  0
   12.6173   10.7440   32.0503 H   0  0  0  0  0  0
   14.1006   12.6103   32.7798 H   0  0  0  0  0  0
   15.3585   13.9258   31.0888 H   0  0  0  0  0  0
   15.1562   13.3922   28.6778 H   0  0  0  0  0  0
   13.4181   12.4404   24.2228 H   0  0  0  0  0  0
   13.7937    9.7728   23.1791 H   0  0  0  0  0  0
   13.0944   12.4314   21.7726 H   0  0  0  0  0  0
   13.0065   10.8368   20.9504 H   0  0  0  0  0  0
   11.0362   13.2532   22.2867 H   0  0  0  0  0  0
   11.7847    9.0350   22.6976 H   0  0  0  0  0  0
    8.7358   12.9389   23.1935 H   0  0  0  0  0  0
    9.4757    8.7009   23.5633 H   0  0  0  0  0  0
    7.9674   10.6532   23.8156 H   0  0  0  0  0  0
   19.4355   12.2884   25.0303 H   0  0  0  0  0  0
   18.3432   11.0424   25.7237 H   0  0  0  0  0  0
   17.6215   11.0586   21.0688 H   0  0  0  0  0  0
   17.8409   11.3518   23.3391 H   0  0  0  0  0  0
   19.5594   11.0483   22.9134 H   0  0  0  0  0  0
   19.6594    7.4198   24.2196 H   0  0  0  0  0  0
   17.7805    8.0535   22.0503 H   0  0  0  0  0  0
   19.1987    9.0036   21.4912 H   0  0  0  0  0  0
   16.1603    9.1644   19.4338 H   0  0  0  0  0  0
   17.5957    9.7382   24.0677 H   0  0  0  0  0  0
   21.2671   10.6888   24.8800 H   0  0  0  0  0  0
   20.5935   10.6175   26.5437 H   0  0  0  0  0  0
   15.6722    8.7899   21.9016 H   0  0  0  0  0  0
   19.5560    8.6979   26.2163 H   0  0  0  0  0  0
   21.1191    8.5074   25.3520 H   0  0  0  0  0  0
   15.3655   11.4500   19.6869 H   0  0  0  0  0  0
   18.9921    6.9860   22.7298 H   0  0  0  0  0  0
  1  2  2  0  0  0
  1  3  1  0  0  0
  1 11  1  0  0  0
  3  4  1  0  0  0
  3 36  1  0  0  0
  3 37  1  0  0  0
  4  5  1  0  0  0
  4 38  1  0  0  0
  4 39  1  0  0  0
  5  6  2  0  0  0
  5 10  1  0  0  0
  6  7  1  0  0  0
  6 40  1  0  0  0
  7  8  2  0  0  0
  7 41  1  0  0  0
  8  9  1  0  0  0
  8 42  1  0  0  0
  9 10  2  0  0  0
  9 43  1  0  0  0
 10 44  1  0  0  0
 11 12  1  0  0  0
 11 45  1  0  0  0
 12 13  1  0  0  0
 12 15  1  0  0  0
 12 46  1  0  0  0
 13 14  2  0  0  0
 13 32  1  0  0  0
 15 16  1  0  0  0
 15 47  1  0  0  0
 15 48  1  0  0  0
 16 17  2  0  0  0
 16 18  1  0  0  0
 17 19  1  0  0  0
 17 49  1  0  0  0
 18 20  2  0  0  0
 18 50  1  0  0  0
 19 21  2  0  0  0
 19 51  1  0  0  0
 20 21  1  0  0  0
 20 52  1  0  0  0
 21 53  1  0  0  0
 22 24  1  0  0  0
 22 30  1  0  0  0
 22 54  1  0  0  0
 22 55  1  0  0  0
 23 26  1  0  0  0
 23 28  1  0  0  0
 23 32  1  0  0  0
 23 56  1  0  0  0
 24 29  1  0  0  0
 24 57  1  0  0  0
 24 58  1  0  0  0
 25 29  1  0  0  0
 25 33  1  0  0  0
 25 35  1  0  0  0
 25 59  1  0  0  0
 26 29  1  0  0  0
 26 60  1  0  0  0
 26 61  1  0  0  0
 27 28  1  0  0  0
 27 31  3  0  0  0
 28 34  1  0  0  0
 28 62  1  0  0  0
 29 63  1  0  0  0
 30 33  1  0  0  0
 30 64  1  0  0  0
 30 65  1  0  0  0
 32 66  1  0  0  0
 33 67  1  0  0  0
 33 68  1  0  0  0
 34 69  1  0  0  0
 35 70  1  0  0  0
M  CHG  1  33   1
M  END
> <s_m_source_file>
../5bpe_ligand.sdf

> <i_m_source_file_index>
1

> <s_epik_input>
W2NIXTFbY0hdW2NIXVtjSF1bY0hdYzFbQ0gyXVtDSDJdQyg9TylbTkhdW0NAQEhdKFtDSDJdYzJbY0hdW2NIXVtjSF1bY0hdW2NIXTIpQyg9TylbTkhdW0NASF0oW0NASF0oQyNOKVtPSF0pW0NIMl1bQ0BASF0oW0NIXTNbT0hdKVtDSDJdW0NIMl1bQ0gyXVtOSDIrXTM=

> <s_epik_cmdline>
J2VwaWtfYXBwJywgJy1pbWFlJywgJ2xpZ2FuZF9wcm8ubWFlJywgJy1vbWFlJywgJ2xpZ2FuZF9wcmVwLm1hZScsICctbXMnLCAnMScsICctcGgnLCAnNycsICctcGh0JywgJzAuNScsICctbnQn

> <r_lp_tautomer_probability>
1

> <r_epik_Ionization_Penalty>
  0.1902

> <r_epik_Ionization_Penalty_Charging>
  0.0053

> <r_epik_Ionization_Penalty_Neutral>
  0.1849

> <r_epik_State_Penalty>
 -0.0000

> <r_epik_Charging_Adjusted_Penalty>
0.00533785114775748

> <i_epik_Tot_Q>
1

> <i_epik_Tot_abs_Q>
1

> <s_epik_Chemistry_Notes>
This compound contains an acetal/aminal-like group ( X-CH(R)-Y where X, Y are N, S, or O) that may be acid/base labile, releasing an aldehyde.

$$$$
