5bq0_ligand
                    3D
 Schrodinger Suite 2020-3.
 50 53  0  0  1  0            999 V2000
  -23.6890    6.6910    2.0310 C   0  0  0  0  0  0
  -24.1560    6.9260    8.6690 C   0  0  0  0  0  0
  -23.9030    8.5720    6.9340 C   0  0  0  0  0  0
  -22.7600    7.6970    6.4180 C   0  0  0  0  0  0
  -23.9350    7.3330   -1.3150 C   0  0  0  0  0  0
  -23.3660    5.8510    7.9300 C   0  0  0  0  0  0
  -24.9400    6.6260   -1.9790 C   0  0  0  0  0  0
  -26.1820    7.1940   -2.1910 C   0  0  0  0  0  0
  -26.4680    8.4550   -1.7080 C   0  0  0  0  0  0
  -25.5030    9.1630   -1.0110 C   0  0  0  0  0  0
  -22.8490    5.7870    4.1220 C   0  0  0  0  0  0
  -23.8520    6.4250    3.3870 C   0  0  0  0  0  0
  -20.7170    5.7640    0.0620 C   0  0  0  0  0  0
  -22.0210    6.3160    0.0300 C   0  0  0  0  0  0
  -22.5720    6.7280   -1.2010 C   0  0  0  0  0  0
  -21.8030    6.5830   -2.3590 C   0  0  0  0  0  0
  -20.5140    6.0540   -2.3060 C   0  0  0  0  0  0
  -19.9370    5.6460   -1.0930 C   0  0  0  0  0  0
  -18.5980    4.9690   -1.0140 C   0  0  0  0  0  0
  -18.3290    4.2540   -0.0130 O   0  5  0  0  0  0
  -17.7790    5.0110   -2.0520 N   0  0  0  0  0  0
  -20.3940    5.4580    1.3680 N   0  0  0  0  0  0
  -21.4550    5.7860    2.1830 C   0  0  0  0  0  0
  -22.4930    6.3370    1.4000 C   0  0  0  0  0  0
  -21.6100    5.5410    3.5360 C   0  0  0  0  0  0
  -23.0830    5.3610    5.5340 C   0  0  0  0  0  0
  -23.3280    4.1840    5.7370 O   0  0  0  0  0  0
  -23.0640    6.2590    6.5390 N   0  0  0  0  0  0
  -24.2460    8.6000   -0.8250 C   0  0  0  0  0  0
  -23.0720    9.4970    0.0630 Cl  0  0  0  0  0  0
  -24.4976    7.1761    1.4646 H   0  0  0  0  0  0
  -24.3616    6.5892    9.6958 H   0  0  0  0  0  0
  -25.1062    7.1077    8.1455 H   0  0  0  0  0  0
  -23.5700    7.8564    8.6987 H   0  0  0  0  0  0
  -23.6316    9.6323    6.8238 H   0  0  0  0  0  0
  -24.0853    8.3486    7.9955 H   0  0  0  0  0  0
  -24.8142    8.3645    6.3538 H   0  0  0  0  0  0
  -22.5777    7.9204    5.3565 H   0  0  0  0  0  0
  -21.8487    7.9045    6.9981 H   0  0  0  0  0  0
  -22.4158    5.6693    8.4535 H   0  0  0  0  0  0
  -23.9520    4.9206    7.9003 H   0  0  0  0  0  0
  -24.7425    5.6146   -2.3341 H   0  0  0  0  0  0
  -26.9418    6.6417   -2.7441 H   0  0  0  0  0  0
  -27.4520    8.8931   -1.8749 H   0  0  0  0  0  0
  -25.7272   10.1523   -0.6121 H   0  0  0  0  0  0
  -24.7816    6.7178    3.8971 H   0  0  0  0  0  0
  -22.2127    6.8884   -3.3331 H   0  0  0  0  0  0
  -19.9410    5.9549   -3.2279 H   0  0  0  0  0  0
  -18.0243    5.6392   -2.9210 H   0  0  0  0  0  0
  -20.7786    5.1595    4.1470 H   0  0  0  0  0  0
  1 12  2  0  0  0
  1 24  1  0  0  0
  1 31  1  0  0  0
  2  6  1  0  0  0
  2 32  1  0  0  0
  2 33  1  0  0  0
  2 34  1  0  0  0
  3  4  1  0  0  0
  3 35  1  0  0  0
  3 36  1  0  0  0
  3 37  1  0  0  0
  4 28  1  0  0  0
  4 38  1  0  0  0
  4 39  1  0  0  0
  5  7  2  0  0  0
  5 15  1  0  0  0
  5 29  1  0  0  0
  6 28  1  0  0  0
  6 40  1  0  0  0
  6 41  1  0  0  0
  7  8  1  0  0  0
  7 42  1  0  0  0
  8  9  2  0  0  0
  8 43  1  0  0  0
  9 10  1  0  0  0
  9 44  1  0  0  0
 10 29  2  0  0  0
 10 45  1  0  0  0
 11 12  1  0  0  0
 11 25  2  0  0  0
 11 26  1  0  0  0
 12 46  1  0  0  0
 13 14  1  0  0  0
 13 18  2  0  0  0
 13 22  1  0  0  0
 14 15  1  0  0  0
 14 24  2  0  0  0
 15 16  2  0  0  0
 16 17  1  0  0  0
 16 47  1  0  0  0
 17 18  1  0  0  0
 17 48  1  0  0  0
 18 19  1  0  0  0
 19 20  1  0  0  0
 19 21  2  0  0  0
 21 49  1  0  0  0
 22 23  2  0  0  0
 23 24  1  0  0  0
 23 25  1  0  0  0
 25 50  1  0  0  0
 26 27  2  0  0  0
 26 28  1  0  0  0
 29 30  1  0  0  0
M  CHG  1  20  -1
M  END
> <s_m_source_file>
../5bq0_ligand.sdf

> <i_m_source_file_index>
1

> <s_epik_input>
W0NIM11bQ0gyXU4oW0NIMl1bQ0gzXSlDKD1PKWMoW2NIXVtjSF0xKVtjSF1jKD1OMiljMT1DKEMyPTMpQyg9W0NIXVtDSDJdQzNDKD1PKVtOSDJdKWM0W2NIXVtjSF1bY0hdW2NIXWM0Q2w=

> <s_epik_cmdline>
J2VwaWtfYXBwJywgJy1pbWFlJywgJ2xpZ2FuZF9wcm8ubWFlJywgJy1vbWFlJywgJ2xpZ2FuZF9wcmVwLm1hZScsICctbXMnLCAnMScsICctcGgnLCAnNycsICctcGh0JywgJzAuNScsICctbnQn

> <r_epik_Ionization_Penalty>
  0.1861

> <r_epik_Ionization_Penalty_Charging>
  0.1861

> <r_epik_Ionization_Penalty_Neutral>
  0.0000

> <r_epik_State_Penalty>
  0.5050

> <r_epik_Charging_Adjusted_Penalty>
0.691117807723768

> <i_epik_Tot_Q>
-1

> <i_epik_Tot_abs_Q>
1

> <s_epik_Chemistry_Notes>
This compound has an imine and may undergo hydrolysis.

$$$$
