5brn_ligand
                    3D
 Schrodinger Suite 2020-3.
 35 36  0  0  1  0            999 V2000
  -14.8330   15.3860  -19.4730 N   0  0  0  0  0  0
  -14.6860   14.5030  -18.4210 C   0  0  0  0  0  0
  -14.5180   12.5750  -17.1350 C   0  0  0  0  0  0
  -14.3480   14.5870  -16.0220 C   0  0  0  0  0  0
  -14.7520   16.6180  -18.9930 C   0  0  0  0  0  0
  -19.0000   20.8970  -21.5620 O   0  5  0  0  0  0
  -18.0650   19.8820  -22.1850 P   0  0  0  0  0  0
  -16.6540   20.3920  -22.0930 O   0  0  0  0  0  0
  -18.4460   19.6930  -23.6400 O   0  0  0  0  0  0
  -18.2220   18.2820  -21.2800 C   0  0  0  0  0  0
  -17.3480   17.1580  -21.8700 C   0  0  0  0  0  0
  -17.1140   16.1980  -20.8570 O   0  0  0  0  0  0
  -16.4930   15.0330  -21.3000 C   0  0  2  0  0  0
  -17.1920   13.8020  -20.7370 C   0  0  0  0  0  0
  -18.0190   13.2490  -21.7680 O   0  0  0  0  0  0
  -15.0230   15.0210  -20.8780 C   0  0  0  0  0  0
  -14.6800   13.1530  -18.3090 N   0  0  0  0  0  0
  -14.3530   13.2580  -15.9990 N   0  0  0  0  0  0
  -14.1710   15.3180  -14.8120 O   0  0  0  0  0  0
  -14.5190   15.2800  -17.2660 C   0  0  0  0  0  0
  -14.5650   16.5840  -17.6570 N   0  0  0  0  0  0
  -14.5188   11.4860  -17.0892 H   0  0  0  0  0  0
  -14.8257   17.5269  -19.5902 H   0  0  0  0  0  0
  -18.4110   20.5465  -24.3330 H   0  0  0  0  0  0
  -17.9178   18.4220  -20.2322 H   0  0  0  0  0  0
  -19.2673   17.9415  -21.3159 H   0  0  0  0  0  0
  -17.8727   16.6919  -22.7171 H   0  0  0  0  0  0
  -16.3933   17.5798  -22.2173 H   0  0  0  0  0  0
  -16.6077   15.0927  -22.3924 H   0  0  0  0  0  0
  -16.4389   13.0657  -20.4196 H   0  0  0  0  0  0
  -17.8073   14.0928  -19.8728 H   0  0  0  0  0  0
  -18.6165   12.3471  -21.5692 H   0  0  0  0  0  0
  -14.4839   15.7346  -21.5183 H   0  0  0  0  0  0
  -14.6326   14.0070  -21.0495 H   0  0  0  0  0  0
  -14.2218   12.7206  -15.0482 H   0  0  0  0  0  0
  1  2  1  0  0  0
  1  5  1  0  0  0
  1 16  1  0  0  0
  2 17  1  0  0  0
  2 20  2  0  0  0
  3 17  2  0  0  0
  3 18  1  0  0  0
  3 22  1  0  0  0
  4 18  1  0  0  0
  4 19  2  0  0  0
  4 20  1  0  0  0
  5 21  2  0  0  0
  5 23  1  0  0  0
  6  7  1  0  0  0
  7  8  2  0  0  0
  7  9  1  0  0  0
  7 10  1  0  0  0
  9 24  1  0  0  0
 10 11  1  0  0  0
 10 25  1  0  0  0
 10 26  1  0  0  0
 11 12  1  0  0  0
 11 27  1  0  0  0
 11 28  1  0  0  0
 12 13  1  0  0  0
 13 14  1  0  0  0
 13 16  1  0  0  0
 13 29  1  0  0  0
 14 15  1  0  0  0
 14 30  1  0  0  0
 14 31  1  0  0  0
 15 32  1  0  0  0
 16 33  1  0  0  0
 16 34  1  0  0  0
 18 35  1  0  0  0
 20 21  1  0  0  0
M  CHG  1   6  -1
M  END
> <s_m_source_file>
../5brn_ligand.sdf

> <i_m_source_file_index>
1

> <s_epik_input>
bjFbY0hdW25IXWMoPU8pYyhjMTIpbltjSF1uMltDSDJdW0NAQEhdKFtDSDJdW09IXSlPW0NIMl1bQ0gyXVAoPU8pKFtPSF0pW09IXQ==

> <s_epik_cmdline>
J2VwaWtfYXBwJywgJy1pbWFlJywgJ2xpZ2FuZF9wcm8ubWFlJywgJy1vbWFlJywgJ2xpZ2FuZF9wcmVwLm1hZScsICctbXMnLCAnMScsICctcGgnLCAnNycsICctcGh0JywgJzAuNScsICctbnQn

> <r_lp_tautomer_probability>
0.855710295894835

> <r_epik_Ionization_Penalty>
  0.1644

> <r_epik_Ionization_Penalty_Charging>
  0.0070

> <r_epik_Ionization_Penalty_Neutral>
  0.1574

> <r_epik_State_Penalty>
  0.1466

> <r_epik_Charging_Adjusted_Penalty>
0.153577670356248

> <i_epik_Tot_Q>
-1

> <i_epik_Tot_abs_Q>
1

$$$$
