5bry_ligand
                    3D
 Schrodinger Suite 2020-3.
 83 86  0  0  1  0            999 V2000
   21.0980   27.7820   14.7140 C   0  0  0  0  0  0
   19.7430   27.7480   14.3810 C   0  0  0  0  0  0
   18.9560   26.6410   14.6860 C   0  0  0  0  0  0
   19.5030   25.5270   15.3360 C   0  0  0  0  0  0
   20.8600   25.5650   15.6660 C   0  0  0  0  0  0
   21.6430   26.6760   15.3580 C   0  0  0  0  0  0
   18.5050   24.1400   15.7140 S   0  0  0  0  0  0
   17.4030   24.0310   14.7120 O   0  0  0  0  0  0
   19.3380   22.9030   15.8050 O   0  0  0  0  0  0
   17.8100   24.3160   17.2040 N   0  0  1  0  0  0
   18.7330   24.6360   18.2770 C   0  0  0  0  0  0
   18.4020   23.9830   19.6270 C   0  0  0  0  0  0
   18.4280   22.4480   19.5450 C   0  0  0  0  0  0
   19.4070   24.4340   20.7020 C   0  0  0  0  0  0
   16.5760   25.0840   17.2040 C   0  0  0  0  0  0
   15.4170   24.2080   17.6990 C   0  0  1  0  0  0
   14.2720   25.0260   17.9930 O   0  0  0  0  0  0
   15.0420   23.1060   16.7120 C   0  0  1  0  0  0
   14.1660   22.1240   17.3330 N   0  0  0  0  0  0
   14.4080   20.8540   17.6560 C   0  0  0  0  0  0
   15.5200   20.3520   17.4750 O   0  0  0  0  0  0
   13.3280   20.2280   18.1940 O   0  0  0  0  0  0
   13.4430   18.8330   18.5090 C   0  0  1  0  0  0
   12.9500   18.6650   19.9660 C   0  0  0  0  0  0
   11.5300   18.7350   19.8470 O   0  0  0  0  0  0
   11.1190   18.1620   18.6070 C   0  0  1  0  0  0
   10.2710   19.1190   17.9350 O   0  0  0  0  0  0
   10.9240   19.5800   16.7640 C   0  0  0  0  0  0
   12.0090   18.5540   16.3900 C   0  0  1  0  0  0
   12.3800   18.0000   17.7850 C   0  0  1  0  0  0
   11.3980   17.4650   15.6110 N   0  3  0  0  0  0
   11.3780   17.7300   14.1610 C   0  0  0  0  0  0
   14.3020   23.6460   15.4790 C   0  0  0  0  0  0
   12.6990   22.0360   14.3260 C   0  0  0  0  0  0
   12.4160   20.9360   13.5060 C   0  0  0  0  0  0
   13.4530   20.2880   12.8470 C   0  0  0  0  0  0
   14.7680   20.7090   13.0590 C   0  0  0  0  0  0
   15.0400   21.8040   13.8920 C   0  0  0  0  0  0
   13.9990   22.4720   14.5300 C   0  0  0  0  0  0
   21.7960   28.8990   14.3830 O   0  0  0  0  0  0
   23.1890   28.8970   14.6470 C   0  0  0  0  0  0
   19.2938   28.6020   13.8740 H   0  0  0  0  0  0
   17.9001   26.6409   14.4155 H   0  0  0  0  0  0
   21.3133   24.7127   16.1721 H   0  0  0  0  0  0
   22.6995   26.6783   15.6261 H   0  0  0  0  0  0
   19.7444   24.3017   18.0025 H   0  0  0  0  0  0
   18.7388   25.7233   18.4436 H   0  0  0  0  0  0
   17.3845   24.3050   19.8937 H   0  0  0  0  0  0
   17.7139   22.1096   18.7798 H   0  0  0  0  0  0
   18.1484   22.0239   20.5207 H   0  0  0  0  0  0
   19.4403   22.1123   19.2758 H   0  0  0  0  0  0
   19.4002   25.5317   20.7728 H   0  0  0  0  0  0
   20.4155   24.0905   20.4282 H   0  0  0  0  0  0
   19.1235   24.0021   21.6731 H   0  0  0  0  0  0
   16.6848   25.9528   17.8699 H   0  0  0  0  0  0
   16.3594   25.4299   16.1825 H   0  0  0  0  0  0
   15.7057   23.7346   18.6490 H   0  0  0  0  0  0
   14.3647   25.8717   18.6903 H   0  0  0  0  0  0
   15.9804   22.6069   16.4284 H   0  0  0  0  0  0
   13.1361   22.3993   17.6043 H   0  0  0  0  0  0
   14.4833   18.5877   18.2488 H   0  0  0  0  0  0
   13.2900   17.6953   20.3586 H   0  0  0  0  0  0
   13.3586   19.4757   20.5872 H   0  0  0  0  0  0
   10.5585   17.2314   18.7798 H   0  0  0  0  0  0
   10.1918   19.6732   15.9485 H   0  0  0  0  0  0
   11.3805   20.5613   16.9609 H   0  0  0  0  0  0
   12.8346   18.9385   15.7731 H   0  0  0  0  0  0
   12.7577   16.9718   17.6848 H   0  0  0  0  0  0
   11.9653   16.5363   15.7716 H   0  0  0  0  0  0
   10.3575   17.3200   15.9370 H   0  0  0  0  0  0
   10.9108   16.8816   13.6396 H   0  0  0  0  0  0
   12.4081   17.8612   13.7980 H   0  0  0  0  0  0
   10.8002   18.6450   13.9634 H   0  0  0  0  0  0
   13.3623   24.1225   15.7949 H   0  0  0  0  0  0
   14.9343   24.3862   14.9668 H   0  0  0  0  0  0
   11.8783   22.5610   14.8148 H   0  0  0  0  0  0
   11.3891   20.5909   13.3859 H   0  0  0  0  0  0
   13.2427   19.4591   12.1711 H   0  0  0  0  0  0
   15.5893   20.1822   12.5731 H   0  0  0  0  0  0
   16.0687   22.1325   14.0400 H   0  0  0  0  0  0
   23.6234   29.8570   14.3313 H   0  0  0  0  0  0
   23.6666   28.0775   14.0899 H   0  0  0  0  0  0
   23.3577   28.7549   15.7247 H   0  0  0  0  0  0
  1  2  2  0  0  0
  1  6  1  0  0  0
  1 40  1  0  0  0
  2  3  1  0  0  0
  2 42  1  0  0  0
  3  4  2  0  0  0
  3 43  1  0  0  0
  4  5  1  0  0  0
  4  7  1  0  0  0
  5  6  2  0  0  0
  5 44  1  0  0  0
  6 45  1  0  0  0
  7  8  2  0  0  0
  7  9  2  0  0  0
  7 10  1  0  0  0
 10 11  1  0  0  0
 10 15  1  0  0  0
 11 12  1  0  0  0
 11 46  1  0  0  0
 11 47  1  0  0  0
 12 13  1  0  0  0
 12 14  1  0  0  0
 12 48  1  0  0  0
 13 49  1  0  0  0
 13 50  1  0  0  0
 13 51  1  0  0  0
 14 52  1  0  0  0
 14 53  1  0  0  0
 14 54  1  0  0  0
 15 16  1  0  0  0
 15 55  1  0  0  0
 15 56  1  0  0  0
 16 17  1  0  0  0
 16 18  1  0  0  0
 16 57  1  0  0  0
 17 58  1  0  0  0
 18 19  1  0  0  0
 18 33  1  0  0  0
 18 59  1  0  0  0
 19 20  1  0  0  0
 19 60  1  0  0  0
 20 21  2  0  0  0
 20 22  1  0  0  0
 22 23  1  0  0  0
 23 24  1  0  0  0
 23 30  1  0  0  0
 23 61  1  0  0  0
 24 25  1  0  0  0
 24 62  1  0  0  0
 24 63  1  0  0  0
 25 26  1  0  0  0
 26 27  1  0  0  0
 26 30  1  0  0  0
 26 64  1  0  0  0
 27 28  1  0  0  0
 28 29  1  0  0  0
 28 65  1  0  0  0
 28 66  1  0  0  0
 29 30  1  0  0  0
 29 31  1  0  0  0
 29 67  1  0  0  0
 30 68  1  0  0  0
 31 32  1  0  0  0
 31 69  1  0  0  0
 31 70  1  0  0  0
 32 71  1  0  0  0
 32 72  1  0  0  0
 32 73  1  0  0  0
 33 39  1  0  0  0
 33 74  1  0  0  0
 33 75  1  0  0  0
 34 35  2  0  0  0
 34 39  1  0  0  0
 34 76  1  0  0  0
 35 36  1  0  0  0
 35 77  1  0  0  0
 36 37  2  0  0  0
 36 78  1  0  0  0
 37 38  1  0  0  0
 37 79  1  0  0  0
 38 39  2  0  0  0
 38 80  1  0  0  0
 40 41  1  0  0  0
 41 81  1  0  0  0
 41 82  1  0  0  0
 41 83  1  0  0  0
M  CHG  1  31   1
M  END
> <s_m_source_file>
../5bry_ligand.sdf

> <i_m_source_file_index>
1

> <s_epik_input>
W0NIM11PYzFbY0hdW2NIXWMoW2NIXVtjSF0xKVMoPU8pKD1PKU4oW0NIMl1bQ0hdKFtDSDNdKVtDSDNdKVtDSDJdW0NAQEhdKFtPSF0pW0NASF0oW0NIMl1jMltjSF1bY0hdW2NIXVtjSF1bY0hdMilbTkhdQyg9TylPW0NAQEhdKFtDSDJdTzMpW0NAQEhdKFtDQEBIXTM0KVtDQEhdKFtDSDJdTzQpW05IMitdW0NIM10=

> <s_epik_cmdline>
J2VwaWtfYXBwJywgJy1pbWFlJywgJ2xpZ2FuZF9wcm8ubWFlJywgJy1vbWFlJywgJ2xpZ2FuZF9wcmVwLm1hZScsICctbXMnLCAnMScsICctcGgnLCAnNycsICctcGh0JywgJzAuNScsICctbnQn

> <r_lp_tautomer_probability>
1

> <r_epik_Ionization_Penalty>
  0.0124

> <r_epik_Ionization_Penalty_Charging>
  0.0124

> <r_epik_Ionization_Penalty_Neutral>
  0.0000

> <r_epik_State_Penalty>
  0.0096

> <r_epik_Charging_Adjusted_Penalty>
0.0219181780089383

> <i_epik_Tot_Q>
1

> <i_epik_Tot_abs_Q>
1

> <s_epik_Chemistry_Notes>
This compound has an ester and may undergo hydrolysis at high or low pH. This compound contains an acetal/aminal-like group ( X-CH(R)-Y where X, Y are N, S, or O) that may be acid/base labile, releasing an aldehyde.

$$$$
