5bs4_ligand
                    3D
 Schrodinger Suite 2020-3.
 81 84  0  0  1  0            999 V2000
   11.6570   17.4710   21.2510 N   0  0  0  0  0  0
   12.6330   18.1060   20.6300 C   0  0  0  0  0  0
   14.4770   19.6460   20.6830 C   0  0  0  0  0  0
   13.8230   18.5370   18.6260 C   0  0  0  0  0  0
   12.8370   17.8130   19.2730 C   0  0  0  0  0  0
   16.3220   19.5540   17.2810 O   0  0  0  0  0  0
   15.1800   21.6880   17.7570 N   0  0  1  0  0  0
   14.2010   22.4580   15.5750 C   0  0  0  0  0  0
   15.4890   22.3400   14.7320 C   0  0  0  0  0  0
   13.0070   22.2330   14.6230 C   0  0  0  0  0  0
   14.9920   22.7760   18.7010 C   0  0  0  0  0  0
   15.8480   23.9780   18.3530 C   0  0  1  0  0  0
   15.3590   25.1450   19.0230 O   0  0  0  0  0  0
   18.9320   24.7710   17.0410 C   0  0  0  0  0  0
   21.6110   28.2140   17.7190 O   0  0  0  0  0  0
   21.6290   27.0180   18.5200 C   0  0  0  0  0  0
   22.2170   25.9190   17.6680 C   0  0  1  0  0  0
   21.9230   26.3810   16.2390 C   0  0  1  0  0  0
   17.6530   23.7150   20.1630 C   0  0  0  0  0  0
   13.4840   18.9280   21.3620 C   0  0  0  0  0  0
   14.5920   19.4580   19.3030 C   0  0  0  0  0  0
   15.8080   20.3260   18.4080 S   0  0  0  0  0  0
   16.8380   20.7770   19.4150 O   0  0  0  0  0  0
   14.1960   21.4250   16.7190 C   0  0  0  0  0  0
   17.3370   23.8050   18.6530 C   0  0  2  0  0  0
   18.0720   24.8960   18.0470 N   0  0  0  0  0  0
   19.1190   23.7790   16.3310 O   0  0  0  0  0  0
   19.6190   25.9040   16.8280 O   0  0  0  0  0  0
   20.5470   25.9540   15.7450 C   0  0  1  0  0  0
   20.1670   27.1720   14.9040 C   0  0  0  0  0  0
   20.7010   28.3030   15.6030 O   0  0  0  0  0  0
   21.8430   27.8840   16.3490 C   0  0  1  0  0  0
   19.9380   24.5480   20.8730 C   0  0  0  0  0  0
   21.3160   24.3450   21.0460 C   0  0  0  0  0  0
   21.8900   23.1230   20.7130 C   0  0  0  0  0  0
   21.1230   22.0860   20.1760 C   0  0  0  0  0  0
   19.7480   22.2870   20.0160 C   0  0  0  0  0  0
   19.1670   23.5090   20.3720 C   0  0  0  0  0  0
   23.6850   25.9020   17.8060 N   0  3  0  0  0  0
   24.2030   25.2430   18.9920 C   0  0  0  0  0  0
   10.9773   16.8181   20.6838 H   0  0  0  0  0  0
   11.5232   17.5946   22.3358 H   0  0  0  0  0  0
   15.1390   20.3297   21.2143 H   0  0  0  0  0  0
   13.9943   18.3757   17.5617 H   0  0  0  0  0  0
   12.2495   17.0547   18.7555 H   0  0  0  0  0  0
   14.1368   23.4506   16.0446 H   0  0  0  0  0  0
   15.4681   23.0862   13.9241 H   0  0  0  0  0  0
   15.5519   21.3313   14.2979 H   0  0  0  0  0  0
   16.3646   22.5184   15.3734 H   0  0  0  0  0  0
   13.0341   22.9817   13.8176 H   0  0  0  0  0  0
   12.0664   22.3326   15.1846 H   0  0  0  0  0  0
   13.0696   21.2244   14.1884 H   0  0  0  0  0  0
   13.9376   23.0894   18.6940 H   0  0  0  0  0  0
   15.2670   22.4371   19.7107 H   0  0  0  0  0  0
   15.7300   24.1485   17.2727 H   0  0  0  0  0  0
   14.3020   25.4334   18.9246 H   0  0  0  0  0  0
   22.2458   27.1856   19.4153 H   0  0  0  0  0  0
   20.6026   26.7648   18.8240 H   0  0  0  0  0  0
   21.8398   24.9251   17.9506 H   0  0  0  0  0  0
   22.6843   25.9788   15.5544 H   0  0  0  0  0  0
   17.3421   24.6464   20.6588 H   0  0  0  0  0  0
   17.1077   22.8664   20.6018 H   0  0  0  0  0  0
   13.3800   19.0118   22.4438 H   0  0  0  0  0  0
   14.3922   20.4407   16.2687 H   0  0  0  0  0  0
   13.1879   21.4325   17.1590 H   0  0  0  0  0  0
   17.6834   22.8766   18.1754 H   0  0  0  0  0  0
   17.9374   25.9228   18.4178 H   0  0  0  0  0  0
   20.5044   24.9560   15.2845 H   0  0  0  0  0  0
   20.6069   27.0762   13.9003 H   0  0  0  0  0  0
   19.0719   27.2325   14.8201 H   0  0  0  0  0  0
   22.7420   28.4078   15.9919 H   0  0  0  0  0  0
   19.4818   25.5046   21.1276 H   0  0  0  0  0  0
   21.9380   25.1475   21.4425 H   0  0  0  0  0  0
   22.9574   22.9714   20.8738 H   0  0  0  0  0  0
   21.5855   21.1419   19.8883 H   0  0  0  0  0  0
   19.1263   21.4879   19.6121 H   0  0  0  0  0  0
   24.1280   25.3781   16.9462 H   0  0  0  0  0  0
   24.0621   26.9348   17.8400 H   0  0  0  0  0  0
   25.3019   25.2918   18.9881 H   0  0  0  0  0  0
   23.8827   24.1907   18.9961 H   0  0  0  0  0  0
   23.8167   25.7474   19.8900 H   0  0  0  0  0  0
  1  2  1  0  0  0
  1 41  1  0  0  0
  1 42  1  0  0  0
  2  5  2  0  0  0
  2 20  1  0  0  0
  3 20  2  0  0  0
  3 21  1  0  0  0
  3 43  1  0  0  0
  4  5  1  0  0  0
  4 21  2  0  0  0
  4 44  1  0  0  0
  5 45  1  0  0  0
  6 22  2  0  0  0
  7 11  1  0  0  0
  7 22  1  0  0  0
  7 24  1  0  0  0
  8  9  1  0  0  0
  8 10  1  0  0  0
  8 24  1  0  0  0
  8 46  1  0  0  0
  9 47  1  0  0  0
  9 48  1  0  0  0
  9 49  1  0  0  0
 10 50  1  0  0  0
 10 51  1  0  0  0
 10 52  1  0  0  0
 11 12  1  0  0  0
 11 53  1  0  0  0
 11 54  1  0  0  0
 12 13  1  0  0  0
 12 25  1  0  0  0
 12 55  1  0  0  0
 13 56  1  0  0  0
 14 26  1  0  0  0
 14 27  2  0  0  0
 14 28  1  0  0  0
 15 16  1  0  0  0
 15 32  1  0  0  0
 16 17  1  0  0  0
 16 57  1  0  0  0
 16 58  1  0  0  0
 17 18  1  0  0  0
 17 39  1  0  0  0
 17 59  1  0  0  0
 18 29  1  0  0  0
 18 32  1  0  0  0
 18 60  1  0  0  0
 19 25  1  0  0  0
 19 38  1  0  0  0
 19 61  1  0  0  0
 19 62  1  0  0  0
 20 63  1  0  0  0
 21 22  1  0  0  0
 22 23  2  0  0  0
 24 64  1  0  0  0
 24 65  1  0  0  0
 25 26  1  0  0  0
 25 66  1  0  0  0
 26 67  1  0  0  0
 28 29  1  0  0  0
 29 30  1  0  0  0
 29 68  1  0  0  0
 30 31  1  0  0  0
 30 69  1  0  0  0
 30 70  1  0  0  0
 31 32  1  0  0  0
 32 71  1  0  0  0
 33 34  2  0  0  0
 33 38  1  0  0  0
 33 72  1  0  0  0
 34 35  1  0  0  0
 34 73  1  0  0  0
 35 36  2  0  0  0
 35 74  1  0  0  0
 36 37  1  0  0  0
 36 75  1  0  0  0
 37 38  2  0  0  0
 37 76  1  0  0  0
 39 40  1  0  0  0
 39 77  1  0  0  0
 39 78  1  0  0  0
 40 79  1  0  0  0
 40 80  1  0  0  0
 40 81  1  0  0  0
M  CHG  1  39   1
M  END
> <s_m_source_file>
../5bs4_ligand.sdf

> <i_m_source_file_index>
1

> <s_epik_input>
W05IMl1jMVtjSF1bY0hdYyhbY0hdW2NIXTEpUyg9TykoPU8pTihbQ0gyXVtDSF0oW0NIM10pW0NIM10pW0NIMl1bQ0BASF0oW09IXSlbQ0BIXShbQ0gyXWMyW2NIXVtjSF1bY0hdW2NIXVtjSF0yKVtOSF1DKD1PKU9bQ0BIXTNbQ0gyXU9bQ0BIXShbQ0BIXTM0KU9bQ0gyXVtDQEBIXTRbTkgyK11bQ0gzXQ==

> <s_epik_cmdline>
J2VwaWtfYXBwJywgJy1pbWFlJywgJ2xpZ2FuZF9wcm8ubWFlJywgJy1vbWFlJywgJ2xpZ2FuZF9wcmVwLm1hZScsICctbXMnLCAnMScsICctcGgnLCAnNycsICctcGh0JywgJzAuNScsICctbnQn

> <r_epik_Ionization_Penalty>
  0.0124

> <r_epik_Ionization_Penalty_Charging>
  0.0124

> <r_epik_Ionization_Penalty_Neutral>
  0.0000

> <r_epik_State_Penalty>
  0.0096

> <r_epik_Charging_Adjusted_Penalty>
0.0219181780089383

> <i_epik_Tot_Q>
1

> <i_epik_Tot_abs_Q>
1

> <s_epik_Chemistry_Notes>
This compound has an ester and may undergo hydrolysis at high or low pH. This compound contains an acetal/aminal-like group ( X-CH(R)-Y where X, Y are N, S, or O) that may be acid/base labile, releasing an aldehyde.

$$$$
