5bsk_ligand
                    3D
 Schrodinger Suite 2020-3.
 37 38  0  0  1  0            999 V2000
    4.3060  -27.0920   -5.6090 C   0  0  0  0  0  0
    5.6590  -27.3940   -5.8170 C   0  0  0  0  0  0
    6.3010  -26.8820   -6.9280 C   0  0  0  0  0  0
    4.9740  -28.3980   -3.9300 C   0  0  0  0  0  0
    5.5830  -26.1000   -7.7800 N   0  0  0  0  0  0
    3.5520  -24.9870   -8.4870 N   0  0  0  0  0  0
    3.6320  -26.2730   -6.5410 N   0  0  0  0  0  0
    4.1770  -31.7990   -0.6990 O   0  0  0  0  0  0
    3.1180  -32.6280   -1.3110 P   0  0  0  0  0  0
    1.8950  -32.6470   -0.3740 O   0  5  0  0  0  0
    3.6200  -34.0190   -1.5040 O   0  0  0  0  0  0
    2.6400  -31.9370   -2.9450 C   0  0  0  0  0  0
    2.5150  -30.4380   -2.8750 C   0  0  0  0  0  0
    2.0960  -29.9660   -4.1560 O   0  0  0  0  0  0
    1.5960  -28.7010   -4.3010 C   0  0  2  0  0  0
    1.2100  -28.5110   -5.7460 C   0  0  0  0  0  0
    0.4050  -29.4850   -6.3220 O   0  0  0  0  0  0
    2.6110  -27.6920   -3.8370 C   0  0  0  0  0  0
    3.9200  -27.7350   -4.4260 N   0  0  0  0  0  0
    4.2420  -25.8090   -7.5630 C   0  0  0  0  0  0
    7.6190  -27.1500   -7.1710 O   0  0  0  0  0  0
    6.0490  -28.2000   -4.7690 N   0  0  0  0  0  0
    4.9798  -28.9934   -3.0170 H   0  0  0  0  0  0
    6.0632  -25.6761   -8.6743 H   0  0  0  0  0  0
    4.0774  -24.5875   -9.3670 H   0  0  0  0  0  0
    2.4906  -24.7480   -8.3247 H   0  0  0  0  0  0
    3.9575  -34.6071   -0.6378 H   0  0  0  0  0  0
    3.4067  -32.1947   -3.6905 H   0  0  0  0  0  0
    1.6723  -32.3597   -3.2530 H   0  0  0  0  0  0
    1.7720  -30.1674   -2.1104 H   0  0  0  0  0  0
    3.4891  -30.0008   -2.6106 H   0  0  0  0  0  0
    0.7129  -28.6494   -3.6471 H   0  0  0  0  0  0
    0.6541  -27.5682   -5.8561 H   0  0  0  0  0  0
    2.1176  -28.4760   -6.3665 H   0  0  0  0  0  0
    0.0960  -29.3919   -7.3736 H   0  0  0  0  0  0
    2.2386  -26.6771   -4.0404 H   0  0  0  0  0  0
    2.7791  -27.8112   -2.7565 H   0  0  0  0  0  0
  1  2  2  0  0  0
  1  7  1  0  0  0
  1 19  1  0  0  0
  2  3  1  0  0  0
  2 22  1  0  0  0
  3  5  1  0  0  0
  3 21  2  0  0  0
  4 19  1  0  0  0
  4 22  2  0  0  0
  4 23  1  0  0  0
  5 20  1  0  0  0
  5 24  1  0  0  0
  6 20  1  0  0  0
  6 25  1  0  0  0
  6 26  1  0  0  0
  7 20  2  0  0  0
  8  9  2  0  0  0
  9 10  1  0  0  0
  9 11  1  0  0  0
  9 12  1  0  0  0
 11 27  1  0  0  0
 12 13  1  0  0  0
 12 28  1  0  0  0
 12 29  1  0  0  0
 13 14  1  0  0  0
 13 30  1  0  0  0
 13 31  1  0  0  0
 14 15  1  0  0  0
 15 16  1  0  0  0
 15 18  1  0  0  0
 15 32  1  0  0  0
 16 17  1  0  0  0
 16 33  1  0  0  0
 16 34  1  0  0  0
 17 35  1  0  0  0
 18 19  1  0  0  0
 18 36  1  0  0  0
 18 37  1  0  0  0
M  CHG  1  10  -1
M  END
> <s_m_source_file>
../5bsk_ligand.sdf

> <i_m_source_file_index>
1

> <s_epik_input>
W05IMl1jKG4xKVtuSF1jKD1PKWMoYzEyKW5bY0hdbjJbQ0gyXVtDQEBIXShbQ0gyXVtPSF0pT1tDSDJdW0NIMl1QKD1PKShbT0hdKVtPSF0=

> <s_epik_cmdline>
J2VwaWtfYXBwJywgJy1pbWFlJywgJ2xpZ2FuZF9wcm8ubWFlJywgJy1vbWFlJywgJ2xpZ2FuZF9wcmVwLm1hZScsICctbXMnLCAnMScsICctcGgnLCAnNycsICctcGh0JywgJzAuNScsICctbnQn

> <r_lp_tautomer_probability>
0.999940409345307

> <r_epik_Ionization_Penalty>
  0.1586

> <r_epik_Ionization_Penalty_Charging>
  0.0011

> <r_epik_Ionization_Penalty_Neutral>
  0.1574

> <r_epik_State_Penalty>
  0.1466

> <r_epik_Charging_Adjusted_Penalty>
0.147752051416693

> <i_epik_Tot_Q>
-1

> <i_epik_Tot_abs_Q>
1

$$$$
