5btr_ligand
                    3D
 Schrodinger Suite 2020-3.
111113  0  0  1  0            999 V2000
  -18.8160   72.0050   20.9450 N   0  3  0  0  0  0
  -20.0150   71.8570   20.1360 C   0  0  2  0  0  0
  -19.6720   71.5900   18.6730 C   0  0  0  0  0  0
  -20.5090   71.0840   17.9230 O   0  0  0  0  0  0
  -20.9110   73.0920   20.2550 C   0  0  0  0  0  0
  -20.5220   74.2540   19.3560 C   0  0  0  0  0  0
  -21.7340   75.1170   18.9940 C   0  0  0  0  0  0
  -22.3500   75.7410   20.1640 N   0  0  0  0  0  0
  -23.4620   75.3080   20.7500 C   0  0  0  0  0  0
  -24.0960   74.2410   20.2780 N   0  0  0  0  0  0
  -23.9420   75.9440   21.8100 N   0  3  0  0  0  0
  -18.4470   71.9220   18.2690 N   0  0  0  0  0  0
  -18.0080   71.6760   16.8950 C   0  0  2  0  0  0
  -17.1980   70.3920   16.7780 C   0  0  0  0  0  0
  -15.9990   70.4380   16.5090 O   0  0  0  0  0  0
  -17.1730   72.8420   16.3740 C   0  0  0  0  0  0
  -17.7790   74.1820   16.6360 C   0  0  0  0  0  0
  -18.8710   74.6500   15.9400 N   0  0  0  0  0  0
  -17.4440   75.1560   17.5140 C   0  0  0  0  0  0
  -19.1830   75.8580   16.3770 C   0  0  0  0  0  0
  -18.3320   76.1880   17.3310 N   0  0  0  0  0  0
  -17.8440   69.2500   16.9900 N   0  0  0  0  0  0
  -17.1730   67.9700   16.8120 C   0  0  2  0  0  0
  -17.2900   67.5320   15.3690 C   0  0  0  0  0  0
  -18.2630   67.8390   14.6940 O   0  0  0  0  0  0
  -17.7570   66.8990   17.7320 C   0  0  0  0  0  0
  -17.6320   67.2130   19.2100 C   0  0  0  0  0  0
  -18.0660   66.0360   20.0690 C   0  0  0  0  0  0
  -17.9300   66.3430   21.5480 C   0  0  0  0  0  0
  -18.3380   65.1630   22.3630 N   0  3  0  0  0  0
  -23.1440   61.2800   10.4900 C   0  0  0  0  0  0
  -22.7350   62.6450    9.9490 C   0  0  0  0  0  0
  -23.4420   63.2550    8.8480 C   0  0  0  0  0  0
  -23.0180   64.5130    8.3970 C   0  0  0  0  0  0
  -23.6700   65.1320    7.3360 O   0  0  0  0  0  0
  -21.9800   65.1530    8.9620 O   0  0  0  0  0  0
  -21.2950   64.6050    9.9980 C   0  0  0  0  0  0
  -20.1800   65.3660   10.5460 C   0  0  0  0  0  0
  -21.6130   63.3790   10.5320 C   0  0  0  0  0  0
  -20.7990   62.8260   11.6980 C   0  0  0  0  0  0
  -19.7540   63.5420   12.2140 C   0  0  0  0  0  0
  -19.4240   64.8640   11.6450 C   0  0  0  0  0  0
  -18.3020   65.6870   12.1130 N   0  0  0  0  0  0
  -17.4130   65.3880   13.2580 C   0  0  0  0  0  0
  -17.5640   64.4290   13.9340 O   0  0  0  0  0  0
  -16.2780   66.3550   13.5270 C   0  0  1  0  0  0
  -16.2900   66.8070   14.8970 N   0  0  0  0  0  0
  -14.9840   65.6220   13.2160 C   0  0  0  0  0  0
  -14.9660   65.0770   11.7240 C   0  0  0  0  0  0
  -14.1470   63.8120   11.5470 C   0  0  0  0  0  0
  -13.3530   63.8220   10.2060 C   0  0  0  0  0  0
  -12.1890   63.0010   10.2990 N   0  0  0  0  0  0
  -11.9300   62.0280    9.2670 C   0  0  0  0  0  0
  -12.6640   61.9250    8.3710 O   0  0  0  0  0  0
  -10.7210   61.1520    9.3360 C   0  0  0  0  0  0
  -18.1908   71.1058   20.8418 H   0  0  0  0  0  0
  -19.0993   72.1356   21.9998 H   0  0  0  0  0  0
  -18.2509   72.8855   20.6053 H   0  0  0  0  0  0
  -20.5240   70.9777   20.5575 H   0  0  0  0  0  0
  -21.9445   72.8218   19.9926 H   0  0  0  0  0  0
  -20.8814   73.4683   21.2882 H   0  0  0  0  0  0
  -19.7867   74.8877   19.8735 H   0  0  0  0  0  0
  -20.0816   73.8663   18.4256 H   0  0  0  0  0  0
  -21.4216   75.9190   18.3090 H   0  0  0  0  0  0
  -22.4957   74.4925   18.5043 H   0  0  0  0  0  0
  -21.8907   76.6313   20.6183 H   0  0  0  0  0  0
  -23.7010   73.7107   19.3989 H   0  0  0  0  0  0
  -25.0162   73.8874   20.7661 H   0  0  0  0  0  0
  -23.4197   76.8283   22.2040 H   0  0  0  0  0  0
  -17.7606   72.3894   18.9904 H   0  0  0  0  0  0
  -18.9431   71.5767   16.3243 H   0  0  0  0  0  0
  -16.2096   72.7673   15.8483 H   0  0  0  0  0  0
  -16.6522   75.2398   18.2729 H   0  0  0  0  0  0
  -20.0031   76.4763   16.0119 H   0  0  0  0  0  0
  -18.8980   69.2796   17.3035 H   0  0  0  0  0  0
  -16.1199   68.1458   17.0768 H   0  0  0  0  0  0
  -18.8290   66.7766   17.5179 H   0  0  0  0  0  0
  -17.2374   65.9448   17.5600 H   0  0  0  0  0  0
  -16.5842   67.4492   19.4473 H   0  0  0  0  0  0
  -18.2674   68.0765   19.4564 H   0  0  0  0  0  0
  -19.1193   65.7980   19.8596 H   0  0  0  0  0  0
  -17.4395   65.1621   19.8371 H   0  0  0  0  0  0
  -16.8830   66.5914   21.7761 H   0  0  0  0  0  0
  -18.5739   67.1967   21.8060 H   0  0  0  0  0  0
  -18.2337   65.4018   23.4317 H   0  0  0  0  0  0
  -17.6952   64.3057   22.1143 H   0  0  0  0  0  0
  -19.3862   64.9110   22.1442 H   0  0  0  0  0  0
  -24.0035   60.9012    9.9174 H   0  0  0  0  0  0
  -23.4223   61.3741   11.5500 H   0  0  0  0  0  0
  -22.3013   60.5796   10.3929 H   0  0  0  0  0  0
  -24.2857   62.7494    8.3783 H   0  0  0  0  0  0
  -19.9209   66.3309   10.1102 H   0  0  0  0  0  0
  -21.0518   61.8544   12.1224 H   0  0  0  0  0  0
  -19.1683   63.1391   13.0403 H   0  0  0  0  0  0
  -18.0565   66.6269   11.5969 H   0  0  0  0  0  0
  -16.3869   67.2799   12.9415 H   0  0  0  0  0  0
  -15.4577   66.5494   15.5685 H   0  0  0  0  0  0
  -14.1338   66.3078   13.3458 H   0  0  0  0  0  0
  -14.8733   64.7673   13.8996 H   0  0  0  0  0  0
  -15.9936   64.8493   11.4044 H   0  0  0  0  0  0
  -14.5362   65.8411   11.0596 H   0  0  0  0  0  0
  -13.4277   63.7221   12.3744 H   0  0  0  0  0  0
  -14.8162   62.9390   11.5465 H   0  0  0  0  0  0
  -13.9933   63.4385    9.3979 H   0  0  0  0  0  0
  -13.0429   64.8509    9.9711 H   0  0  0  0  0  0
  -11.5023   63.1149   11.1507 H   0  0  0  0  0  0
  -10.1483   61.3884   10.2450 H   0  0  0  0  0  0
  -10.0916   61.3253    8.4506 H   0  0  0  0  0  0
  -11.0333   60.0976    9.3632 H   0  0  0  0  0  0
  -19.3337   74.0280   15.1596 H   0  0  0  0  0  0
  -24.8625   75.5873   22.2953 H   0  0  0  0  0  0
  1  2  1  0  0  0
  1 56  1  0  0  0
  1 57  1  0  0  0
  1 58  1  0  0  0
  2  3  1  0  0  0
  2  5  1  0  0  0
  2 59  1  0  0  0
  3  4  2  0  0  0
  3 12  1  0  0  0
  5  6  1  0  0  0
  5 60  1  0  0  0
  5 61  1  0  0  0
  6  7  1  0  0  0
  6 62  1  0  0  0
  6 63  1  0  0  0
  7  8  1  0  0  0
  7 64  1  0  0  0
  7 65  1  0  0  0
  8  9  1  0  0  0
  8 66  1  0  0  0
  9 10  1  0  0  0
  9 11  2  0  0  0
 10 67  1  0  0  0
 10 68  1  0  0  0
 11 69  1  0  0  0
 11111  1  0  0  0
 12 13  1  0  0  0
 12 70  1  0  0  0
 13 14  1  0  0  0
 13 16  1  0  0  0
 13 71  1  0  0  0
 14 15  2  0  0  0
 14 22  1  0  0  0
 16 17  2  0  0  0
 16 72  1  0  0  0
 17 18  1  0  0  0
 17 19  1  0  0  0
 18 20  1  0  0  0
 18110  1  0  0  0
 19 21  2  0  0  0
 19 73  1  0  0  0
 20 21  1  0  0  0
 20 74  1  0  0  0
 22 23  1  0  0  0
 22 75  1  0  0  0
 23 24  1  0  0  0
 23 26  1  0  0  0
 23 76  1  0  0  0
 24 25  2  0  0  0
 24 47  1  0  0  0
 26 27  1  0  0  0
 26 77  1  0  0  0
 26 78  1  0  0  0
 27 28  1  0  0  0
 27 79  1  0  0  0
 27 80  1  0  0  0
 28 29  1  0  0  0
 28 81  1  0  0  0
 28 82  1  0  0  0
 29 30  1  0  0  0
 29 83  1  0  0  0
 29 84  1  0  0  0
 30 85  1  0  0  0
 30 86  1  0  0  0
 30 87  1  0  0  0
 31 32  1  0  0  0
 31 88  1  0  0  0
 31 89  1  0  0  0
 31 90  1  0  0  0
 32 33  2  0  0  0
 32 39  1  0  0  0
 33 34  1  0  0  0
 33 91  1  0  0  0
 34 35  2  0  0  0
 34 36  1  0  0  0
 36 37  1  0  0  0
 37 38  2  0  0  0
 37 39  1  0  0  0
 38 42  1  0  0  0
 38 92  1  0  0  0
 39 40  2  0  0  0
 40 41  1  0  0  0
 40 93  1  0  0  0
 41 42  2  0  0  0
 41 94  1  0  0  0
 42 43  1  0  0  0
 43 44  1  0  0  0
 43 95  1  0  0  0
 44 45  2  0  0  0
 44 46  1  0  0  0
 46 47  1  0  0  0
 46 48  1  0  0  0
 46 96  1  0  0  0
 47 97  1  0  0  0
 48 49  1  0  0  0
 48 98  1  0  0  0
 48 99  1  0  0  0
 49 50  1  0  0  0
 49100  1  0  0  0
 49101  1  0  0  0
 50 51  1  0  0  0
 50102  1  0  0  0
 50103  1  0  0  0
 51 52  1  0  0  0
 51104  1  0  0  0
 51105  1  0  0  0
 52 53  1  0  0  0
 52106  1  0  0  0
 53 54  2  0  0  0
 53 55  1  0  0  0
 55107  1  0  0  0
 55108  1  0  0  0
 55109  1  0  0  0
M  CHG  3   1   1  11   1  30   1
M  END
> <s_m_source_file>
../5btr_ligand.sdf

> <i_m_source_file_index>
1

> <s_epik_input>
W0hdL049QyhbTkgyXSlcW05IXVtDSDJdW0NIMl1bQ0gyXVtDQEhdKFtOSDMrXSlDKD1PKVtOSF1bQ0BASF0oW0NIMl1DMT1OW0NIMl1OPVtDSF0xKUMoPU8pW05IXVtDQEBIXShbQ0gyXVtDSDJdW0NIMl1bQ0gyXVtOSDMrXSlDKD1PKVtOSF1bQ0BASF0oW0NIMl1bQ0gyXVtDSDJdW0NIMl1bTkhdQyg9TylbQ0gzXSlDKD1PKVtOSF1jKFtjSF0yKVtjSF1bY0hdYyhjMjMpYyhbQ0gzXSlbY0hdYyg9TylvMw==

> <s_epik_cmdline>
J2VwaWtfYXBwJywgJy1pbWFlJywgJ2xpZ2FuZF9wcm8ubWFlJywgJy1vbWFlJywgJ2xpZ2FuZF9wcmVwLm1hZScsICctbXMnLCAnMScsICctcGgnLCAnNycsICctcGh0JywgJzAuNScsICctbnQn

> <r_epik_Ionization_Penalty>
  0.1746

> <r_epik_Ionization_Penalty_Charging>
  0.1746

> <r_epik_Ionization_Penalty_Neutral>
  0.0000

> <r_epik_State_Penalty>
  0.1635

> <r_epik_Charging_Adjusted_Penalty>
0.338098330747947

> <i_epik_Tot_Q>
3

> <i_epik_Tot_abs_Q>
3

> <s_epik_Chemistry_Notes>
This compound has an imine and may undergo hydrolysis.

$$$$
