5bue_ligand
                    3D
 Schrodinger Suite 2020-3.
 49 53  0  0  1  0            999 V2000
   17.8200   -0.7380   14.5510 C   0  0  0  0  0  0
   16.4610   -0.8510   14.0240 C   0  0  0  0  0  0
   19.9080   -1.5500   15.6750 C   0  0  0  0  0  0
   20.5700   -2.2490   16.6890 C   0  0  0  0  0  0
   18.5020   -2.7680   17.7350 C   0  0  0  0  0  0
   17.7940   -2.0970   16.7280 C   0  0  0  0  0  0
   12.9110   -1.8480   14.1680 C   0  0  0  0  0  0
   12.8060   -2.5780   15.4700 C   0  0  0  0  0  0
   11.6330   -2.9840   15.9660 C   0  0  0  0  0  0
   10.4330   -2.0020   14.1700 C   0  0  0  0  0  0
   11.7130   -1.5450   13.5900 C   0  0  0  0  0  0
    9.2480   -3.3340   15.9230 C   0  0  0  0  0  0
    8.8940   -4.6150   15.1470 C   0  0  0  0  0  0
    7.5570   -4.8600   14.7620 C   0  0  0  0  0  0
    7.2130   -6.0170   14.0350 C   0  0  0  0  0  0
    8.2050   -6.9500   13.6740 C   0  0  0  0  0  0
    9.5460   -6.7230   14.0450 C   0  0  0  0  0  0
    9.8770   -5.5600   14.7760 C   0  0  0  0  0  0
   18.3920    0.1270   13.8240 N   0  0  0  0  0  0
   16.4050    0.0270   13.0040 C   0  0  3  0  0  0
   17.5540    0.6090   12.8840 N   0  0  0  0  0  0
   15.3190   -1.7320   14.4490 C   0  0  0  0  0  0
   14.0970   -1.5220   13.6570 N   0  0  0  0  0  0
   14.2580   -0.9680   12.2890 C   0  0  0  0  0  0
   15.1830    0.2730   12.1590 C   0  0  0  0  0  0
   18.5040   -1.4770   15.6840 C   0  0  0  0  0  0
   19.8540   -2.8310   17.6760 N   0  0  0  0  0  0
   10.4600   -2.7520   15.3190 N   0  0  0  0  0  0
    9.4280   -1.7410   13.5270 O   0  0  0  0  0  0
   20.4771   -1.0645   14.8822 H   0  0  0  0  0  0
   21.6574   -2.3240   16.6833 H   0  0  0  0  0  0
   17.9674   -3.2366   18.5612 H   0  0  0  0  0  0
   16.7051   -2.0562   16.7538 H   0  0  0  0  0  0
   13.7162   -2.7856   16.0326 H   0  0  0  0  0  0
   11.6164   -3.5166   16.9169 H   0  0  0  0  0  0
   11.6996   -0.9503   12.6766 H   0  0  0  0  0  0
    8.4122   -2.6220   15.8561 H   0  0  0  0  0  0
    9.4332   -3.5838   16.9781 H   0  0  0  0  0  0
    6.7806   -4.1439   15.0311 H   0  0  0  0  0  0
    6.1752   -6.1909   13.7508 H   0  0  0  0  0  0
    7.9368   -7.8435   13.1103 H   0  0  0  0  0  0
   10.3209   -7.4386   13.7703 H   0  0  0  0  0  0
   10.9150   -5.3877   15.0604 H   0  0  0  0  0  0
   15.6089   -2.7873   14.3378 H   0  0  0  0  0  0
   15.0711   -1.5289   15.5013 H   0  0  0  0  0  0
   14.6865   -1.7374   11.6299 H   0  0  0  0  0  0
   13.2765   -0.6581   11.9010 H   0  0  0  0  0  0
   14.6647    1.1745   12.5176 H   0  0  0  0  0  0
   15.4847    0.4160   11.1109 H   0  0  0  0  0  0
  1  2  2  0  0  0
  1 19  1  0  0  0
  1 26  1  0  0  0
  2 20  1  0  0  0
  2 22  1  0  0  0
  3  4  2  0  0  0
  3 26  1  0  0  0
  3 30  1  0  0  0
  4 27  1  0  0  0
  4 31  1  0  0  0
  5  6  1  0  0  0
  5 27  2  0  0  0
  5 32  1  0  0  0
  6 26  2  0  0  0
  6 33  1  0  0  0
  7  8  1  0  0  0
  7 11  2  0  0  0
  7 23  1  0  0  0
  8  9  2  0  0  0
  8 34  1  0  0  0
  9 28  1  0  0  0
  9 35  1  0  0  0
 10 11  1  0  0  0
 10 28  1  0  0  0
 10 29  2  0  0  0
 11 36  1  0  0  0
 12 13  1  0  0  0
 12 28  1  0  0  0
 12 37  1  0  0  0
 12 38  1  0  0  0
 13 14  2  0  0  0
 13 18  1  0  0  0
 14 15  1  0  0  0
 14 39  1  0  0  0
 15 16  2  0  0  0
 15 40  1  0  0  0
 16 17  1  0  0  0
 16 41  1  0  0  0
 17 18  2  0  0  0
 17 42  1  0  0  0
 18 43  1  0  0  0
 19 21  2  0  0  0
 20 21  1  0  0  0
 20 25  1  0  0  0
 22 23  1  0  0  0
 22 44  1  0  0  0
 22 45  1  0  0  0
 23 24  1  0  0  0
 24 25  1  0  0  0
 24 46  1  0  0  0
 24 47  1  0  0  0
 25 48  1  0  0  0
 25 49  1  0  0  0
M  END
> <s_m_source_file>
../5bue_ligand.sdf

> <i_m_source_file_index>
1

> <s_epik_input>
W2NIXTFbY0hdbltjSF1bY0hdYzFDPTJOPU5bQ0hdKEMyMylbQ0gyXVtDSDJdTihbQ0gyXTMpYzRbY0hdW2NIXW4oYyg9TylbY0hdNClbQ0gyXWM1W2NIXVtjSF1bY0hdW2NIXVtjSF01

> <s_epik_cmdline>
J2VwaWtfYXBwJywgJy1pbWFlJywgJ2xpZ2FuZF9wcm8ubWFlJywgJy1vbWFlJywgJ2xpZ2FuZF9wcmVwLm1hZScsICctbXMnLCAnMScsICctcGgnLCAnNycsICctcGh0JywgJzAuNScsICctbnQn

> <r_lp_tautomer_probability>
1

> <r_epik_Ionization_Penalty>
  0.0073

> <r_epik_Ionization_Penalty_Charging>
  0.0000

> <r_epik_Ionization_Penalty_Neutral>
  0.0073

> <r_epik_State_Penalty>
 -0.0000

> <r_epik_Charging_Adjusted_Penalty>
2.31411903684973e-06

> <i_epik_Tot_Q>
0

> <i_epik_Tot_abs_Q>
0

$$$$
