5bui_ligand
                    3D
 Schrodinger Suite 2020-3.
 36 39  0  0  1  0            999 V2000
  -12.8260    2.0930   14.9400 C   0  0  0  0  0  0
  -10.5290    2.2360   14.8700 C   0  0  0  0  0  0
  -10.4590    2.6720   16.1800 C   0  0  0  0  0  0
  -17.7500    0.8370   14.5950 C   0  0  0  0  0  0
  -18.5450    1.4430   15.6920 C   0  0  0  0  0  0
  -17.9360    1.9860   16.8250 C   0  0  0  0  0  0
  -18.6910    2.5560   17.8360 C   0  0  0  0  0  0
  -20.0520    2.5830   17.6910 C   0  0  0  0  0  0
  -20.6930    2.0650   16.6000 C   0  0  0  0  0  0
  -19.9310    1.4830   15.6020 C   0  0  0  0  0  0
  -20.8140    3.1220   18.6990 F   0  0  0  0  0  0
  -16.3660    1.0430   14.2730 C   0  0  0  0  0  0
  -15.3330    1.9060   14.9310 C   0  0  0  0  0  0
  -18.2610   -0.0370   13.7210 N   0  0  0  0  0  0
  -17.2630   -0.3920   12.8540 N   0  0  0  0  0  0
  -16.0900    0.2600   13.1610 C   0  0  3  0  0  0
  -14.7680    0.2080   12.4650 C   0  0  0  0  0  0
  -14.0030    1.4830   12.8200 C   0  0  0  0  0  0
  -14.0000    1.8070   14.2540 N   0  0  0  0  0  0
  -12.8530    2.5450   16.2690 C   0  0  0  0  0  0
  -11.6390    2.8330   16.8770 C   0  0  0  0  0  0
  -11.6820    1.9410   14.2420 N   0  0  0  0  0  0
   -9.5978    2.1249   14.3145 H   0  0  0  0  0  0
   -9.4981    2.8828   16.6494 H   0  0  0  0  0  0
  -16.8500    1.9608   16.9149 H   0  0  0  0  0  0
  -18.2145    2.9721   18.7236 H   0  0  0  0  0  0
  -21.7790    2.1094   16.5182 H   0  0  0  0  0  0
  -20.4254    1.0496   14.7326 H   0  0  0  0  0  0
  -15.6570    2.9566   14.8966 H   0  0  0  0  0  0
  -15.2086    1.5948   15.9787 H   0  0  0  0  0  0
  -14.2106   -0.6782   12.8025 H   0  0  0  0  0  0
  -14.9278    0.1487   11.3783 H   0  0  0  0  0  0
  -12.9524    1.3781   12.5116 H   0  0  0  0  0  0
  -14.4547    2.3392   12.2976 H   0  0  0  0  0  0
  -13.7946    2.6655   16.8047 H   0  0  0  0  0  0
  -11.6176    3.1872   17.9076 H   0  0  0  0  0  0
  1 19  1  0  0  0
  1 20  2  0  0  0
  1 22  1  0  0  0
  2  3  1  0  0  0
  2 22  2  0  0  0
  2 23  1  0  0  0
  3 21  2  0  0  0
  3 24  1  0  0  0
  4  5  1  0  0  0
  4 12  2  0  0  0
  4 14  1  0  0  0
  5  6  2  0  0  0
  5 10  1  0  0  0
  6  7  1  0  0  0
  6 25  1  0  0  0
  7  8  2  0  0  0
  7 26  1  0  0  0
  8  9  1  0  0  0
  8 11  1  0  0  0
  9 10  2  0  0  0
  9 27  1  0  0  0
 10 28  1  0  0  0
 12 13  1  0  0  0
 12 16  1  0  0  0
 13 19  1  0  0  0
 13 29  1  0  0  0
 13 30  1  0  0  0
 14 15  2  0  0  0
 15 16  1  0  0  0
 16 17  1  0  0  0
 17 18  1  0  0  0
 17 31  1  0  0  0
 17 32  1  0  0  0
 18 19  1  0  0  0
 18 33  1  0  0  0
 18 34  1  0  0  0
 20 21  1  0  0  0
 20 35  1  0  0  0
 21 36  1  0  0  0
M  END
> <s_m_source_file>
../5bui_ligand.sdf

> <i_m_source_file_index>
1

> <s_epik_input>
bjFbY0hdW2NIXVtjSF1bY0hdYzFOKFtDSDJdMilbQ0gyXVtDSDJdW0NIXShDMjMpTj1OQz0zYzRbY0hdW2NIXWMoRilbY0hdW2NIXTQ=

> <s_epik_cmdline>
J2VwaWtfYXBwJywgJy1pbWFlJywgJ2xpZ2FuZF9wcm8ubWFlJywgJy1vbWFlJywgJ2xpZ2FuZF9wcmVwLm1hZScsICctbXMnLCAnMScsICctcGgnLCAnNycsICctcGh0JywgJzAuNScsICctbnQn

> <r_epik_Ionization_Penalty>
  0.0683

> <r_epik_Ionization_Penalty_Charging>
  0.0000

> <r_epik_Ionization_Penalty_Neutral>
  0.0683

> <r_epik_State_Penalty>
  0.0598

> <r_epik_Charging_Adjusted_Penalty>
0.0597871268792012

> <i_epik_Tot_Q>
0

> <i_epik_Tot_abs_Q>
0

$$$$
