5buj_ligand
                    3D
 Schrodinger Suite 2020-3.
 36 39  0  0  1  0            999 V2000
  -17.7200    1.1420   14.6690 C   0  0  0  0  0  0
  -16.3730    1.3040   14.1990 C   0  0  0  0  0  0
  -17.7060    2.3430   16.8780 C   0  0  0  0  0  0
  -18.4160    2.9500   17.8940 C   0  0  0  0  0  0
  -20.4060    2.5440   16.8680 C   0  0  0  0  0  0
  -19.7890    1.9100   15.8070 C   0  0  0  0  0  0
  -12.7590    2.0790   14.4280 C   0  0  0  0  0  0
  -12.5250    2.7030   15.6910 C   0  0  0  0  0  0
  -11.2610    2.8240   16.1470 C   0  0  0  0  0  0
  -10.3190    1.7700   14.2030 C   0  0  0  0  0  0
  -11.6530    1.6040   13.7240 C   0  0  0  0  0  0
  -18.3310    0.2400   13.9000 N   0  0  0  0  0  0
  -16.2400    0.4660   13.1050 C   0  0  3  0  0  0
  -17.4450   -0.1770   12.9630 N   0  0  0  0  0  0
  -15.2300    2.1060   14.7350 C   0  0  0  0  0  0
  -14.0580    1.9870   13.8650 N   0  0  0  0  0  0
  -14.3310    1.7430   12.4410 C   0  0  0  0  0  0
  -15.0090    0.3980   12.2640 C   0  0  0  0  0  0
  -18.4020    1.8120   15.7980 C   0  0  0  0  0  0
  -19.7490    3.0610   17.9080 N   0  0  0  0  0  0
  -10.2040    2.3890   15.4190 N   0  0  0  0  0  0
   -9.2910    1.4260   13.6000 O   0  0  0  0  0  0
  -16.6186    2.2810   16.9216 H   0  0  0  0  0  0
  -17.8579    3.3631   18.7342 H   0  0  0  0  0  0
  -21.4928    2.6267   16.8549 H   0  0  0  0  0  0
  -20.3794    1.4937   14.9908 H   0  0  0  0  0  0
  -13.3716    3.0802   16.2834 H   0  0  0  0  0  0
  -11.0976    3.2869   17.1314 H   0  0  0  0  0  0
  -11.7352    0.5136   13.6044 H   0  0  0  0  0  0
  -11.6171    2.0799   12.7329 H   0  0  0  0  0  0
  -15.5213    3.1651   14.7946 H   0  0  0  0  0  0
  -14.9651    1.7416   15.7385 H   0  0  0  0  0  0
  -14.9903    2.5336   12.0533 H   0  0  0  0  0  0
  -13.3847    1.7470   11.8803 H   0  0  0  0  0  0
  -14.3702   -0.4258   12.6150 H   0  0  0  0  0  0
  -15.2906    0.2223   11.2153 H   0  0  0  0  0  0
  1  2  2  0  0  0
  1 12  1  0  0  0
  1 19  1  0  0  0
  2 13  1  0  0  0
  2 15  1  0  0  0
  3  4  2  0  0  0
  3 19  1  0  0  0
  3 23  1  0  0  0
  4 20  1  0  0  0
  4 24  1  0  0  0
  5  6  1  0  0  0
  5 20  2  0  0  0
  5 25  1  0  0  0
  6 19  2  0  0  0
  6 26  1  0  0  0
  7  8  2  0  0  0
  7 11  1  0  0  0
  7 16  1  0  0  0
  8  9  1  0  0  0
  8 27  1  0  0  0
  9 21  2  0  0  0
  9 28  1  0  0  0
 10 11  1  0  0  0
 10 21  1  0  0  0
 10 22  2  0  0  0
 11 29  1  0  0  0
 11 30  1  0  0  0
 12 14  2  0  0  0
 13 14  1  0  0  0
 13 18  1  0  0  0
 15 16  1  0  0  0
 15 31  1  0  0  0
 15 32  1  0  0  0
 16 17  1  0  0  0
 17 18  1  0  0  0
 17 33  1  0  0  0
 17 34  1  0  0  0
 18 35  1  0  0  0
 18 36  1  0  0  0
M  END
> <s_m_source_file>
../5buj_ligand.sdf

> <i_m_source_file_index>
1

> <s_epik_input>
W2NIXTFbY0hdbltjSF1bY0hdYzFDPTJOPU5bQ0hdKEMyMylbQ0gyXVtDSDJdTihbQ0gyXTMpQzQ9W0NIXVtDSF09TkMoPU8pW0NIMl00

> <s_epik_cmdline>
J2VwaWtfYXBwJywgJy1pbWFlJywgJ2xpZ2FuZF9wcm8ubWFlJywgJy1vbWFlJywgJ2xpZ2FuZF9wcmVwLm1hZScsICctbXMnLCAnMScsICctcGgnLCAnNycsICctcGh0JywgJzAuNScsICctbnQn

> <r_lp_tautomer_probability>
1

> <r_epik_Ionization_Penalty>
  0.0005

> <r_epik_Ionization_Penalty_Charging>
  0.0000

> <r_epik_Ionization_Penalty_Neutral>
  0.0005

> <r_epik_State_Penalty>
 -0.0000

> <r_epik_Charging_Adjusted_Penalty>
0

> <i_epik_Tot_Q>
0

> <i_epik_Tot_abs_Q>
0

> <s_epik_Chemistry_Notes>
This compound has an imine and may undergo hydrolysis.

$$$$
