5bvd_ligand
                    3D
 Schrodinger Suite 2020-3.
 59 63  0  0  1  0            999 V2000
   12.2940   -2.7200   14.9120 C   0  0  0  0  0  0
   12.4170   -3.6850   17.1220 C   0  0  0  0  0  0
   18.0380   -1.2760   14.4790 C   0  0  0  0  0  0
   13.0750   -2.0840   14.0110 C   0  0  0  0  0  0
   14.4050   -2.1090   14.6470 C   0  0  0  0  0  0
   14.2710   -2.7420   15.8210 C   0  0  0  0  0  0
    8.9590   -4.3120   15.6610 C   0  0  2  0  0  0
    8.7140   -5.3830   14.5870 C   0  0  0  0  0  0
    7.3950   -5.7250   14.2610 C   0  0  0  0  0  0
    7.1350   -6.7090   13.3060 C   0  0  0  0  0  0
    8.1920   -7.3390   12.6450 C   0  0  0  0  0  0
    9.5190   -6.9950   12.9480 C   0  0  0  0  0  0
    9.7720   -6.0190   13.9240 C   0  0  0  0  0  0
   19.2370   -2.6550   16.1620 C   0  0  0  0  0  0
   20.6910   -3.1730   16.3500 C   0  0  0  0  0  0
   20.7640   -4.1730   17.5280 C   0  0  0  0  0  0
   18.8620   -3.2170   18.5890 C   0  0  0  0  0  0
   18.7760   -2.0940   17.5330 C   0  0  0  0  0  0
    5.4720   -7.1650   12.9870 Cl  0  0  0  0  0  0
   20.2480   -3.6000   18.7430 O   0  0  0  0  0  0
    8.5370   -3.9130   18.0080 O   0  0  0  0  0  0
   10.3850   -3.9820   15.7180 N   0  0  0  0  0  0
    8.3420   -4.8800   16.9720 C   0  0  0  0  0  0
   15.7000   -1.4780   14.1870 C   0  0  0  0  0  0
   10.8660   -3.0450   14.8570 C   0  0  0  0  0  0
   16.8510   -1.8270   14.8200 N   0  0  0  0  0  0
   19.1730   -1.6090   15.1380 N   0  0  0  0  0  0
   11.3070   -4.6490   16.6510 C   0  0  0  0  0  0
   16.9870   -0.0030   12.8170 C   0  0  0  0  0  0
   10.1760   -2.4720   14.0180 O   0  0  0  0  0  0
   15.7420   -0.5560   13.1410 C   0  0  0  0  0  0
   13.0100   -3.0640   15.9390 N   0  0  0  0  0  0
   18.0920   -0.3660   13.4970 N   0  0  0  0  0  0
   11.9811   -2.9155   17.7761 H   0  0  0  0  0  0
   13.1808   -4.2488   17.6776 H   0  0  0  0  0  0
   12.7911   -1.6569   13.0492 H   0  0  0  0  0  0
   15.0633   -2.9488   16.5405 H   0  0  0  0  0  0
    8.5327   -3.3226   15.4388 H   0  0  0  0  0  0
    6.5663   -5.2192   14.7566 H   0  0  0  0  0  0
    7.9860   -8.0997   11.8920 H   0  0  0  0  0  0
   10.3453   -7.4817   12.4298 H   0  0  0  0  0  0
   10.8005   -5.7533   14.1685 H   0  0  0  0  0  0
   18.5683   -3.4389   15.7769 H   0  0  0  0  0  0
   21.0214   -3.6796   15.4312 H   0  0  0  0  0  0
   21.3582   -2.3243   16.5609 H   0  0  0  0  0  0
   20.1707   -5.0674   17.2870 H   0  0  0  0  0  0
   21.8113   -4.4628   17.6986 H   0  0  0  0  0  0
   18.4661   -2.8501   19.5474 H   0  0  0  0  0  0
   18.2695   -4.0813   18.2543 H   0  0  0  0  0  0
   19.4289   -1.2584   17.8255 H   0  0  0  0  0  0
   17.7383   -1.7379   17.4533 H   0  0  0  0  0  0
    8.1726   -4.1163   19.0258 H   0  0  0  0  0  0
    7.2680   -5.0643   16.8219 H   0  0  0  0  0  0
    8.8428   -5.8236   17.2342 H   0  0  0  0  0  0
   20.0793   -1.0468   14.8687 H   0  0  0  0  0  0
   11.7619   -5.5102   16.1398 H   0  0  0  0  0  0
   10.7330   -5.0004   17.5211 H   0  0  0  0  0  0
   17.0626    0.7255   12.0098 H   0  0  0  0  0  0
   14.8400   -0.2766   12.5966 H   0  0  0  0  0  0
  1  4  2  0  0  0
  1 25  1  0  0  0
  1 32  1  0  0  0
  2 28  1  0  0  0
  2 32  1  0  0  0
  2 34  1  0  0  0
  2 35  1  0  0  0
  3 26  2  0  0  0
  3 27  1  0  0  0
  3 33  1  0  0  0
  4  5  1  0  0  0
  4 36  1  0  0  0
  5  6  2  0  0  0
  5 24  1  0  0  0
  6 32  1  0  0  0
  6 37  1  0  0  0
  7  8  1  0  0  0
  7 22  1  0  0  0
  7 23  1  0  0  0
  7 38  1  0  0  0
  8  9  2  0  0  0
  8 13  1  0  0  0
  9 10  1  0  0  0
  9 39  1  0  0  0
 10 11  2  0  0  0
 10 19  1  0  0  0
 11 12  1  0  0  0
 11 40  1  0  0  0
 12 13  2  0  0  0
 12 41  1  0  0  0
 13 42  1  0  0  0
 14 15  1  0  0  0
 14 18  1  0  0  0
 14 27  1  0  0  0
 14 43  1  0  0  0
 15 16  1  0  0  0
 15 44  1  0  0  0
 15 45  1  0  0  0
 16 20  1  0  0  0
 16 46  1  0  0  0
 16 47  1  0  0  0
 17 18  1  0  0  0
 17 20  1  0  0  0
 17 48  1  0  0  0
 17 49  1  0  0  0
 18 50  1  0  0  0
 18 51  1  0  0  0
 21 23  1  0  0  0
 21 52  1  0  0  0
 22 25  1  0  0  0
 22 28  1  0  0  0
 23 53  1  0  0  0
 23 54  1  0  0  0
 24 26  1  0  0  0
 24 31  2  0  0  0
 25 30  2  0  0  0
 27 55  1  0  0  0
 28 56  1  0  0  0
 28 57  1  0  0  0
 29 31  1  0  0  0
 29 33  2  0  0  0
 29 58  1  0  0  0
 31 59  1  0  0  0
M  END
> <s_m_source_file>
../5bvd_ligand.sdf

> <i_m_source_file_index>
1

> <s_epik_input>
W2NIXTFbY0hdW2NIXWMoQ2wpW2NIXWMxW0NAQEhdKFtDSDJdW09IXSlOKEMyPU8pW0NIMl1bQ0gyXW4oYzIzKVtjSF1jKFtjSF0zKS1jKFtjSF1bY0hdbjQpbmM0W05IXVtDSF01W0NIMl1bQ0gyXU9bQ0gyXVtDSDJdNQ==

> <s_epik_cmdline>
J2VwaWtfYXBwJywgJy1pbWFlJywgJ2xpZ2FuZF9wcm8ubWFlJywgJy1vbWFlJywgJ2xpZ2FuZF9wcmVwLm1hZScsICctbXMnLCAnMScsICctcGgnLCAnNycsICctcGh0JywgJzAuNScsICctbnQn

> <r_lp_tautomer_probability>
1

> <r_epik_Ionization_Penalty>
  0.0008

> <r_epik_Ionization_Penalty_Charging>
  0.0000

> <r_epik_Ionization_Penalty_Neutral>
  0.0008

> <r_epik_State_Penalty>
 -0.0000

> <r_epik_Charging_Adjusted_Penalty>
0

> <i_epik_Tot_Q>
0

> <i_epik_Tot_abs_Q>
0

$$$$
