5bvf_ligand
                    3D
 Schrodinger Suite 2020-3.
 62 66  0  0  1  0            999 V2000
   10.1370   -2.8920   14.3200 O   0  0  0  0  0  0
   14.3220   -2.5170   14.9300 C   0  0  0  0  0  0
   14.1030   -2.7350   16.2350 C   0  0  0  0  0  0
   15.6190   -1.9480   14.4220 C   0  0  0  0  0  0
   15.6860   -1.1210   13.3010 C   0  0  0  0  0  0
   16.9340   -0.6160   12.9550 C   0  0  0  0  0  0
   17.9430   -1.7740   14.7260 C   0  0  0  0  0  0
   12.2540   -3.3200   17.6980 C   0  0  0  0  0  0
   11.8290   -4.7910   17.9000 C   0  0  0  0  0  0
   11.3840   -5.4230   16.5600 C   0  0  0  0  0  0
    8.9640   -4.9660   15.8130 C   0  0  1  0  0  0
    8.6740   -6.0340   14.7500 C   0  0  0  0  0  0
    7.3560   -6.4360   14.5560 C   0  0  0  0  0  0
    7.0700   -7.4010   13.5950 C   0  0  0  0  0  0
    8.0720   -7.9870   12.8150 C   0  0  0  0  0  0
    9.4010   -7.5960   13.0130 C   0  0  0  0  0  0
    9.6930   -6.6280   13.9850 C   0  0  0  0  0  0
    8.3950   -5.4920   17.1620 C   0  0  0  0  0  0
   19.0200   -3.2020   16.4100 C   0  0  2  0  0  0
   18.8230   -2.6690   17.8510 C   0  0  0  0  0  0
   19.2180   -3.9110   18.6900 C   0  0  1  0  0  0
    5.4080   -7.8690   13.3870 Cl  0  0  0  0  0  0
   18.0220   -0.9510   13.6790 N   0  0  0  0  0  0
   10.3930   -4.6400   15.7990 N   0  0  0  0  0  0
   20.4820   -4.4560   17.9510 C   0  0  0  0  0  0
   12.2300   -3.1330   15.2200 C   0  0  0  0  0  0
   19.5020   -3.5230   20.0520 O   0  0  0  0  0  0
   20.4190   -3.8660   16.5200 C   0  0  0  0  0  0
   13.0700   -2.7870   14.2250 C   0  0  0  0  0  0
   10.8240   -3.5440   15.0950 C   0  0  0  0  0  0
   12.8550   -3.0660   16.3750 N   0  0  0  0  0  0
   19.0500   -2.1140   15.4230 N   0  0  0  0  0  0
    8.7590   -4.5800   18.2080 O   0  0  0  0  0  0
   16.7450   -2.2640   15.0950 N   0  0  0  0  0  0
   14.8395   -2.6498   17.0340 H   0  0  0  0  0  0
   14.7958   -0.8804   12.7198 H   0  0  0  0  0  0
   17.0336    0.0508   12.0985 H   0  0  0  0  0  0
   11.3736   -2.6675   17.7941 H   0  0  0  0  0  0
   12.9987   -3.0456   18.4597 H   0  0  0  0  0  0
   12.6774   -5.3663   18.2990 H   0  0  0  0  0  0
   10.9895   -4.8360   18.6094 H   0  0  0  0  0  0
   12.2586   -5.5458   15.9042 H   0  0  0  0  0  0
   10.9285   -6.4058   16.7515 H   0  0  0  0  0  0
    8.5214   -3.9814   15.6018 H   0  0  0  0  0  0
    6.5546   -5.9988   15.1516 H   0  0  0  0  0  0
    7.8217   -8.7367   12.0644 H   0  0  0  0  0  0
   10.2002   -8.0387   12.4185 H   0  0  0  0  0  0
   10.7286   -6.3309   14.1503 H   0  0  0  0  0  0
    7.2993   -5.5625   17.0952 H   0  0  0  0  0  0
    8.8142   -6.4867   17.3738 H   0  0  0  0  0  0
   18.2030   -3.8366   16.0360 H   0  0  0  0  0  0
   19.4817   -1.8035   18.0150 H   0  0  0  0  0  0
   17.7753   -2.3637   17.9890 H   0  0  0  0  0  0
   18.4243   -4.6579   18.8387 H   0  0  0  0  0  0
   21.3875   -4.1247   18.4804 H   0  0  0  0  0  0
   20.4500   -5.5554   17.9318 H   0  0  0  0  0  0
   18.6996   -3.1212   20.6881 H   0  0  0  0  0  0
   20.5131   -4.6516   15.7558 H   0  0  0  0  0  0
   21.1988   -3.1063   16.3628 H   0  0  0  0  0  0
   12.8661   -2.7238   13.1561 H   0  0  0  0  0  0
   19.9838   -1.5616   15.2416 H   0  0  0  0  0  0
    8.4473   -4.7786   19.2440 H   0  0  0  0  0  0
  1 30  2  0  0  0
  2  3  2  0  0  0
  2  4  1  0  0  0
  2 29  1  0  0  0
  3 31  1  0  0  0
  3 35  1  0  0  0
  4  5  2  0  0  0
  4 34  1  0  0  0
  5  6  1  0  0  0
  5 36  1  0  0  0
  6 23  2  0  0  0
  6 37  1  0  0  0
  7 23  1  0  0  0
  7 32  1  0  0  0
  7 34  2  0  0  0
  8  9  1  0  0  0
  8 31  1  0  0  0
  8 38  1  0  0  0
  8 39  1  0  0  0
  9 10  1  0  0  0
  9 40  1  0  0  0
  9 41  1  0  0  0
 10 24  1  0  0  0
 10 42  1  0  0  0
 10 43  1  0  0  0
 11 12  1  0  0  0
 11 18  1  0  0  0
 11 24  1  0  0  0
 11 44  1  0  0  0
 12 13  2  0  0  0
 12 17  1  0  0  0
 13 14  1  0  0  0
 13 45  1  0  0  0
 14 15  2  0  0  0
 14 22  1  0  0  0
 15 16  1  0  0  0
 15 46  1  0  0  0
 16 17  2  0  0  0
 16 47  1  0  0  0
 17 48  1  0  0  0
 18 33  1  0  0  0
 18 49  1  0  0  0
 18 50  1  0  0  0
 19 20  1  0  0  0
 19 28  1  0  0  0
 19 32  1  0  0  0
 19 51  1  0  0  0
 20 21  1  0  0  0
 20 52  1  0  0  0
 20 53  1  0  0  0
 21 25  1  0  0  0
 21 27  1  0  0  0
 21 54  1  0  0  0
 24 30  1  0  0  0
 25 28  1  0  0  0
 25 55  1  0  0  0
 25 56  1  0  0  0
 26 29  2  0  0  0
 26 30  1  0  0  0
 26 31  1  0  0  0
 27 57  1  0  0  0
 28 58  1  0  0  0
 28 59  1  0  0  0
 29 60  1  0  0  0
 32 61  1  0  0  0
 33 62  1  0  0  0
M  END
> <s_m_source_file>
../5bvf_ligand.sdf

> <i_m_source_file_index>
1

> <s_epik_input>
W2NIXTFbY0hdW2NIXWMoQ2wpW2NIXWMxW0NAQEhdKFtDSDJdW09IXSlOKEMyPU8pW0NIMl1bQ0gyXVtDSDJdbihjMjMpW2NIXWMoW2NIXTMpLWM0W2NIXVtjSF1uYyhuNClbTkhdW0NAQEhdNVtDSDJdW0NASF0oW09IXSlbQ0gyXVtDSDJdNQ==

> <s_epik_cmdline>
J2VwaWtfYXBwJywgJy1pbWFlJywgJ2xpZ2FuZF9wcm8ubWFlJywgJy1vbWFlJywgJ2xpZ2FuZF9wcmVwLm1hZScsICctbXMnLCAnMScsICctcGgnLCAnNycsICctcGh0JywgJzAuNScsICctbnQn

> <r_lp_tautomer_probability>
1

> <r_epik_Ionization_Penalty>
  0.0009

> <r_epik_Ionization_Penalty_Charging>
  0.0000

> <r_epik_Ionization_Penalty_Neutral>
  0.0009

> <r_epik_State_Penalty>
 -0.0000

> <r_epik_Charging_Adjusted_Penalty>
0

> <i_epik_Tot_Q>
0

> <i_epik_Tot_abs_Q>
0

$$$$
