5bvn_ligand
                    3D
 Schrodinger Suite 2020-3.
 51 54  0  0  1  0            999 V2000
   22.7220   41.1920   38.2990 C   0  0  0  0  0  0
   22.7040   39.6890   38.1850 C   0  0  0  0  0  0
   23.7930   38.9590   38.6570 C   0  0  0  0  0  0
   22.7490   36.8870   38.0210 C   0  0  0  0  0  0
   22.7560   35.3790   37.9410 C   0  0  0  0  0  0
   23.9640   34.0830   36.2390 C   0  0  0  0  0  0
   22.9870   34.0100   35.5020 O   0  0  0  0  0  0
   25.3430   32.4250   35.0020 C   0  0  0  0  0  0
   26.2940   31.4380   35.2320 C   0  0  0  0  0  0
   26.5180   30.4540   34.2830 C   0  0  0  0  0  0
   25.7800   30.4400   33.1140 C   0  0  0  0  0  0
   24.8370   31.4050   32.9190 C   0  0  0  0  0  0
   21.6290   39.0000   37.6200 C   0  0  0  0  0  0
   19.2180   39.4830   37.5420 C   0  0  0  0  0  0
   18.1430   40.1330   36.7640 C   0  0  0  0  0  0
   18.1970   40.7960   35.5650 C   0  0  0  0  0  0
   16.1060   40.7960   36.1290 C   0  0  0  0  0  0
   14.7130   40.9450   36.2770 C   0  0  0  0  0  0
   14.0620   40.3810   37.3640 C   0  0  0  0  0  0
   23.8100   37.5770   38.5830 C   0  0  0  0  0  0
   23.9700   34.8360   37.3570 N   0  0  0  0  0  0
   25.1370   33.4130   35.9880 N   0  0  0  0  0  0
   24.1150   31.3910   31.7640 F   0  0  0  0  0  0
   24.6030   32.3980   33.8240 C   0  0  0  0  0  0
   21.6650   37.6130   37.5450 C   0  0  0  0  0  0
   20.5000   39.7000   37.1390 N   0  0  0  0  0  0
   18.9560   38.7740   38.5140 O   0  0  0  0  0  0
   16.9470   41.2140   35.1790 N   0  0  0  0  0  0
   14.7820   39.7110   38.3360 C   0  0  0  0  0  0
   16.1310   39.5860   38.2200 C   0  0  0  0  0  0
   16.7960   40.1220   37.1370 N   0  0  0  0  0  0
   23.6615   41.5125   38.7730 H   0  0  0  0  0  0
   21.8705   41.5235   38.9115 H   0  0  0  0  0  0
   22.6472   41.6367   37.2957 H   0  0  0  0  0  0
   24.6440   39.4840   39.0909 H   0  0  0  0  0  0
   22.6600   34.9577   38.9526 H   0  0  0  0  0  0
   21.9124   35.0407   37.3214 H   0  0  0  0  0  0
   26.8646   31.4381   36.1607 H   0  0  0  0  0  0
   27.2762   29.6907   34.4580 H   0  0  0  0  0  0
   25.9493   29.6704   32.3609 H   0  0  0  0  0  0
   19.1097   40.9682   34.9946 H   0  0  0  0  0  0
   14.1448   41.5055   35.5346 H   0  0  0  0  0  0
   12.9789   40.4662   37.4524 H   0  0  0  0  0  0
   24.6670   37.0263   38.9709 H   0  0  0  0  0  0
   24.9437   35.0343   37.8288 H   0  0  0  0  0  0
   26.0338   33.6310   36.5865 H   0  0  0  0  0  0
   23.8477   33.1590   33.6275 H   0  0  0  0  0  0
   20.8224   37.0821   37.1020 H   0  0  0  0  0  0
   20.6230   40.4876   36.3810 H   0  0  0  0  0  0
   14.2676   39.2826   39.1962 H   0  0  0  0  0  0
   16.6923   39.0571   38.9903 H   0  0  0  0  0  0
  1  2  1  0  0  0
  1 32  1  0  0  0
  1 33  1  0  0  0
  1 34  1  0  0  0
  2  3  2  0  0  0
  2 13  1  0  0  0
  3 20  1  0  0  0
  3 35  1  0  0  0
  4  5  1  0  0  0
  4 20  2  0  0  0
  4 25  1  0  0  0
  5 21  1  0  0  0
  5 36  1  0  0  0
  5 37  1  0  0  0
  6  7  2  0  0  0
  6 21  1  0  0  0
  6 22  1  0  0  0
  8  9  2  0  0  0
  8 22  1  0  0  0
  8 24  1  0  0  0
  9 10  1  0  0  0
  9 38  1  0  0  0
 10 11  2  0  0  0
 10 39  1  0  0  0
 11 12  1  0  0  0
 11 40  1  0  0  0
 12 23  1  0  0  0
 12 24  2  0  0  0
 13 25  2  0  0  0
 13 26  1  0  0  0
 14 15  1  0  0  0
 14 26  1  0  0  0
 14 27  2  0  0  0
 15 16  2  0  0  0
 15 31  1  0  0  0
 16 28  1  0  0  0
 16 41  1  0  0  0
 17 18  1  0  0  0
 17 28  2  0  0  0
 17 31  1  0  0  0
 18 19  2  0  0  0
 18 42  1  0  0  0
 19 29  1  0  0  0
 19 43  1  0  0  0
 20 44  1  0  0  0
 21 45  1  0  0  0
 22 46  1  0  0  0
 24 47  1  0  0  0
 25 48  1  0  0  0
 26 49  1  0  0  0
 29 30  2  0  0  0
 29 50  1  0  0  0
 30 31  1  0  0  0
 30 51  1  0  0  0
M  END
> <s_m_source_file>
../5bvn_ligand.sdf

> <i_m_source_file_index>
1

> <s_epik_input>
RmMoW2NIXTEpW2NIXVtjSF1bY0hdYzFbTkhdQyg9TylbTkhdW0NIMl1jKFtjSF1bY0hdYzJbQ0gzXSlbY0hdYzJbTkhdQyg9TyljKFtjSF1uMyluKGMzNClbY0hdW2NIXVtjSF1bY0hdNA==

> <s_epik_cmdline>
J2VwaWtfYXBwJywgJy1pbWFlJywgJ2xpZ2FuZF9wcm8ubWFlJywgJy1vbWFlJywgJ2xpZ2FuZF9wcmVwLm1hZScsICctbXMnLCAnMScsICctcGgnLCAnNycsICctcGh0JywgJzAuNScsICctbnQn

> <r_epik_Ionization_Penalty>
  0.0235

> <r_epik_Ionization_Penalty_Charging>
  0.0235

> <r_epik_Ionization_Penalty_Neutral>
  0.0000

> <r_epik_State_Penalty>
  0.0190

> <r_epik_Charging_Adjusted_Penalty>
0.0425198528690407

> <i_epik_Tot_Q>
0

> <i_epik_Tot_abs_Q>
0

$$$$
