5bvw_ligand
                    3D
 Schrodinger Suite 2020-3.
 59 62  0  0  1  0            999 V2000
   19.1960   38.8680   35.3320 C   0  0  0  0  0  0
   19.3360   38.1130   36.4430 C   0  0  0  0  0  0
   20.5260   37.4820   37.0470 C   0  0  0  0  0  0
    8.4830   39.1300   37.3220 N   0  0  0  0  0  0
   25.4530   36.2640   37.6950 C   0  0  0  0  0  0
   25.1540   37.5860   37.9910 C   0  0  0  0  0  0
   23.9160   38.1300   37.6460 C   0  0  0  0  0  0
   23.6040   39.5660   37.9890 C   0  0  0  0  0  0
   14.7800   38.7120   36.8710 C   0  0  0  0  0  0
   13.4910   39.2640   36.8400 C   0  0  0  0  0  0
   12.5890   38.7810   37.8020 C   0  0  0  0  0  0
   14.1820   37.3610   38.6400 C   0  0  0  0  0  0
   14.5810   36.3130   39.6250 C   0  0  0  0  0  0
   10.3670   38.4460   38.7100 C   0  0  0  0  0  0
   10.7180   39.8080   36.6260 C   0  0  0  0  0  0
    7.0400   39.3770   37.2460 C   0  0  0  0  0  0
    6.2190   38.1420   37.5430 C   0  0  0  0  0  0
   15.7610   39.1000   35.9670 N   0  0  0  0  0  0
   17.0920   38.8290   35.9860 C   0  0  0  0  0  0
   17.9100   39.2780   35.0760 N   0  0  0  0  0  0
   17.8310   37.8690   37.2230 S   0  0  0  0  0  0
   21.7330   37.8620   36.5650 N   0  0  0  0  0  0
   23.0010   37.3290   36.9590 C   0  0  0  0  0  0
   23.3100   36.0020   36.6830 C   0  0  0  0  0  0
   24.5330   35.4680   37.0400 C   0  0  0  0  0  0
   22.1700   35.0020   35.8430 Cl  0  0  0  0  0  0
   20.4150   36.6530   37.9450 O   0  0  0  0  0  0
   12.9310   37.8250   38.6880 N   0  0  0  0  0  0
   15.1030   37.7640   37.7700 N   0  0  0  0  0  0
   11.2710   39.2600   37.8770 N   0  0  0  0  0  0
    8.9330   38.9440   38.6990 C   0  0  0  0  0  0
    9.2620   40.2230   36.7460 C   0  0  0  0  0  0
    4.8500   38.4880   37.6920 O   0  0  0  0  0  0
   20.0364   39.1311   34.6896 H   0  0  0  0  0  0
   26.4201   35.8505   37.9811 H   0  0  0  0  0  0
   25.8934   38.2059   38.4981 H   0  0  0  0  0  0
   24.4561   40.0081   38.5261 H   0  0  0  0  0  0
   22.7086   39.6044   38.6268 H   0  0  0  0  0  0
   23.4199   40.1322   37.0641 H   0  0  0  0  0  0
   13.2060   40.0234   36.1119 H   0  0  0  0  0  0
   13.7267   36.0784   40.2770 H   0  0  0  0  0  0
   15.4175   36.6834   40.2358 H   0  0  0  0  0  0
   14.8928   35.4050   39.0881 H   0  0  0  0  0  0
   10.3616   37.4099   38.3406 H   0  0  0  0  0  0
   10.7160   38.4616   39.7530 H   0  0  0  0  0  0
   11.2933   40.6974   36.3294 H   0  0  0  0  0  0
   10.7824   39.0485   35.8329 H   0  0  0  0  0  0
    6.7614   40.1502   37.9771 H   0  0  0  0  0  0
    6.7793   39.7189   36.2335 H   0  0  0  0  0  0
    6.3214   37.4257   36.7145 H   0  0  0  0  0  0
    6.5769   37.6790   38.4744 H   0  0  0  0  0  0
   15.4926   39.7117   35.0931 H   0  0  0  0  0  0
   21.7964   38.6489   35.7990 H   0  0  0  0  0  0
   24.7697   34.4297   36.8074 H   0  0  0  0  0  0
    8.8773   39.9026   39.2356 H   0  0  0  0  0  0
    8.2884   38.2060   39.1989 H   0  0  0  0  0  0
    8.8694   40.4667   35.7478 H   0  0  0  0  0  0
    9.1879   41.1079   37.3952 H   0  0  0  0  0  0
    4.1064   37.7079   37.9123 H   0  0  0  0  0  0
  1  2  2  0  0  0
  1 20  1  0  0  0
  1 34  1  0  0  0
  2  3  1  0  0  0
  2 21  1  0  0  0
  3 22  1  0  0  0
  3 27  2  0  0  0
  4 16  1  0  0  0
  4 31  1  0  0  0
  4 32  1  0  0  0
  5  6  2  0  0  0
  5 25  1  0  0  0
  5 35  1  0  0  0
  6  7  1  0  0  0
  6 36  1  0  0  0
  7  8  1  0  0  0
  7 23  2  0  0  0
  8 37  1  0  0  0
  8 38  1  0  0  0
  8 39  1  0  0  0
  9 10  2  0  0  0
  9 18  1  0  0  0
  9 29  1  0  0  0
 10 11  1  0  0  0
 10 40  1  0  0  0
 11 28  2  0  0  0
 11 30  1  0  0  0
 12 13  1  0  0  0
 12 28  1  0  0  0
 12 29  2  0  0  0
 13 41  1  0  0  0
 13 42  1  0  0  0
 13 43  1  0  0  0
 14 30  1  0  0  0
 14 31  1  0  0  0
 14 44  1  0  0  0
 14 45  1  0  0  0
 15 30  1  0  0  0
 15 32  1  0  0  0
 15 46  1  0  0  0
 15 47  1  0  0  0
 16 17  1  0  0  0
 16 48  1  0  0  0
 16 49  1  0  0  0
 17 33  1  0  0  0
 17 50  1  0  0  0
 17 51  1  0  0  0
 18 19  1  0  0  0
 18 52  1  0  0  0
 19 20  2  0  0  0
 19 21  1  0  0  0
 22 23  1  0  0  0
 22 53  1  0  0  0
 23 24  1  0  0  0
 24 25  2  0  0  0
 24 26  1  0  0  0
 25 54  1  0  0  0
 31 55  1  0  0  0
 31 56  1  0  0  0
 32 57  1  0  0  0
 32 58  1  0  0  0
 33 59  1  0  0  0
M  END
> <s_m_source_file>
../5bvw_ligand.sdf

> <i_m_source_file_index>
1

> <s_epik_input>
W0NIM11jMVtjSF1bY0hdW2NIXWMoQ2wpYzFbTkhdQyg9TyljMltjSF1uYyhzMilbTkhdYzNbY0hdYyhuYyhuMylbQ0gzXSlOKFtDSDJdW0NIMl00KVtDSDJdW0NIMl1bTkgrXTRbQ0gyXVtDSDJdW09IXQ==

> <s_epik_cmdline>
J2VwaWtfYXBwJywgJy1pbWFlJywgJ2xpZ2FuZF9wcm8ubWFlJywgJy1vbWFlJywgJ2xpZ2FuZF9wcmVwLm1hZScsICctbXMnLCAnMScsICctcGgnLCAnNycsICctcGh0JywgJzAuNScsICctbnQn

> <r_lp_tautomer_probability>
0.999999999985434

> <r_epik_Ionization_Penalty>
  0.5787

> <r_epik_Ionization_Penalty_Charging>
  0.0000

> <r_epik_Ionization_Penalty_Neutral>
  0.5787

> <r_epik_State_Penalty>
  0.4045

> <r_epik_Charging_Adjusted_Penalty>
0.404525148573214

> <i_epik_Tot_Q>
0

> <i_epik_Tot_abs_Q>
0

$$$$
