5bwb_ligand
                    3D
 Schrodinger Suite 2020-3.
 45 46  0  0  1  0            999 V2000
  -51.9430   31.9610   21.9220 C   0  0  0  0  0  0
  -52.8080   32.9280   22.7240 C   0  0  0  0  0  0
  -52.7600   34.3290   22.1260 C   0  0  0  0  0  0
  -53.7930   28.4780   23.7260 N   0  0  0  0  0  0
  -57.1280   35.8130   20.4910 C   0  0  0  0  0  0
  -59.3600   35.8320   22.5420 C   0  0  0  0  0  0
  -60.0070   36.7490   19.2510 C   0  0  0  0  0  0
  -58.9320   35.9760   19.0740 C   0  0  0  0  0  0
  -50.5230   31.4970   23.7490 C   0  0  0  0  0  0
  -52.1340   30.1060   23.4350 C   0  0  0  0  0  0
  -54.1400   34.9780   22.2520 C   0  0  0  0  0  0
  -54.8660   34.8790   20.9150 C   0  0  0  0  0  0
  -54.9190   27.5600   23.0630 O   0  0  0  0  0  0
  -53.0890   29.3190   22.9190 C   0  0  0  0  0  0
  -51.8310   30.1010   24.7430 N   0  0  0  0  0  0
  -50.8390   30.9650   24.9370 C   0  0  0  0  0  0
  -51.2950   30.9450   22.7910 N   0  0  0  0  0  0
  -56.3670   34.6560   21.1220 C   0  0  0  0  0  0
  -58.5450   35.4950   20.2730 N   0  0  0  0  0  0
  -60.2850   36.7790   20.5590 N   0  0  0  0  0  0
  -59.3750   36.0300   21.2010 C   0  0  0  0  0  0
  -60.2840   36.3540   23.4090 N   0  0  0  0  0  0
  -61.4140   37.1940   22.9270 O   0  0  0  0  0  0
  -52.5677   31.4353   21.1848 H   0  0  0  0  0  0
  -51.1534   32.5216   21.4003 H   0  0  0  0  0  0
  -53.8508   32.5779   22.7187 H   0  0  0  0  0  0
  -52.4420   32.9743   23.7603 H   0  0  0  0  0  0
  -52.0172   34.9334   22.6672 H   0  0  0  0  0  0
  -52.4778   34.2652   21.0647 H   0  0  0  0  0  0
  -57.0736   36.6911   21.1513 H   0  0  0  0  0  0
  -56.6802   36.0585   19.5167 H   0  0  0  0  0  0
  -58.5391   35.2071   22.9237 H   0  0  0  0  0  0
  -60.5608   37.2650   18.4667 H   0  0  0  0  0  0
  -58.4482   35.7686   18.1195 H   0  0  0  0  0  0
  -49.7604   32.2578   23.5825 H   0  0  0  0  0  0
  -54.7212   34.4563   23.0266 H   0  0  0  0  0  0
  -54.0237   36.0357   22.5309 H   0  0  0  0  0  0
  -54.7222   35.8116   20.3498 H   0  0  0  0  0  0
  -54.4597   34.0347   20.3388 H   0  0  0  0  0  0
  -55.5049   26.8702   23.6883 H   0  0  0  0  0  0
  -53.3032   29.3540   21.8406 H   0  0  0  0  0  0
  -50.3675   31.1985   25.8916 H   0  0  0  0  0  0
  -56.5919   34.6126   22.1979 H   0  0  0  0  0  0
  -56.6723   33.7129   20.6453 H   0  0  0  0  0  0
  -62.1420   37.6008   23.6444 H   0  0  0  0  0  0
  1  2  1  0  0  0
  1 17  1  0  0  0
  1 24  1  0  0  0
  1 25  1  0  0  0
  2  3  1  0  0  0
  2 26  1  0  0  0
  2 27  1  0  0  0
  3 11  1  0  0  0
  3 28  1  0  0  0
  3 29  1  0  0  0
  4 13  1  0  0  0
  4 14  2  0  0  0
  5 18  1  0  0  0
  5 19  1  0  0  0
  5 30  1  0  0  0
  5 31  1  0  0  0
  6 21  1  0  0  0
  6 22  2  0  0  0
  6 32  1  0  0  0
  7  8  2  0  0  0
  7 20  1  0  0  0
  7 33  1  0  0  0
  8 19  1  0  0  0
  8 34  1  0  0  0
  9 16  2  0  0  0
  9 17  1  0  0  0
  9 35  1  0  0  0
 10 14  1  0  0  0
 10 15  2  0  0  0
 10 17  1  0  0  0
 11 12  1  0  0  0
 11 36  1  0  0  0
 11 37  1  0  0  0
 12 18  1  0  0  0
 12 38  1  0  0  0
 12 39  1  0  0  0
 13 40  1  0  0  0
 14 41  1  0  0  0
 15 16  1  0  0  0
 16 42  1  0  0  0
 18 43  1  0  0  0
 18 44  1  0  0  0
 19 21  1  0  0  0
 20 21  2  0  0  0
 22 23  1  0  0  0
 23 45  1  0  0  0
M  END
> <s_m_source_file>
../5bwb_ligand.sdf

> <i_m_source_file_index>
1

> <s_epik_input>
W09IXS9OPVtDSF0vYzFuW2NIXVtjSF1uMVtDSDJdW0NIMl1bQ0gyXVtDSDJdW0NIMl1bQ0gyXVtDSDJdbjJbY0hdW2NIXW5jMi9bQ0hdPU5cW09IXQ==

> <s_epik_cmdline>
J2VwaWtfYXBwJywgJy1pbWFlJywgJ2xpZ2FuZF9wcm8ubWFlJywgJy1vbWFlJywgJ2xpZ2FuZF9wcmVwLm1hZScsICctbXMnLCAnMScsICctcGgnLCAnNycsICctcGh0JywgJzAuNScsICctbnQn

> <r_lp_tautomer_probability>
1

> <r_epik_Ionization_Penalty>
  0.0988

> <r_epik_Ionization_Penalty_Charging>
  0.0988

> <r_epik_Ionization_Penalty_Neutral>
  0.0001

> <r_epik_State_Penalty>
 -0.0000

> <r_epik_Charging_Adjusted_Penalty>
0.0987542819888656

> <i_epik_Tot_Q>
0

> <i_epik_Tot_abs_Q>
0

> <s_epik_Chemistry_Notes>
This compound has an imine and may undergo hydrolysis.

$$$$
