5bwc_ligand
                    3D
 Schrodinger Suite 2020-3.
 53 54  0  0  1  0            999 V2000
   59.0520  -33.1260   -1.2610 C   0  0  0  0  0  0
   58.1930  -35.4650   -0.8020 C   0  0  0  0  0  0
   62.0340  -33.5660   -5.3320 O   0  0  0  0  0  0
   61.1030  -32.6050   -4.9510 N   0  0  0  0  0  0
   60.4700  -32.7650   -3.8740 C   0  0  0  0  0  0
   59.4790  -31.7750   -3.3860 C   0  0  0  0  0  0
   59.2130  -30.6390   -4.1510 C   0  0  0  0  0  0
   57.6630  -29.9110   -2.4850 C   0  0  0  0  0  0
   57.9350  -31.0450   -1.7250 C   0  0  0  0  0  0
   58.8170  -31.9640   -2.1410 N   0  0  0  0  0  0
   57.8770  -34.0810   -1.3610 C   0  0  0  0  0  0
   58.2980  -29.7090   -3.7010 C   0  0  0  0  0  0
   56.9280  -36.3070   -0.9210 C   0  0  0  0  0  0
   56.5550  -37.1500    0.2890 C   0  0  0  0  0  0
   56.5110  -36.3700    1.5910 C   0  0  0  0  0  0
   55.1770  -36.3870    2.3570 C   0  0  0  0  0  0
   55.2850  -37.0280    3.6890 N   0  0  0  0  0  0
   54.3290  -37.9240    4.0110 C   0  0  0  0  0  0
   54.3410  -38.5860    5.2350 C   0  0  0  0  0  0
   55.3380  -38.3230    6.1580 C   0  0  0  0  0  0
   56.3130  -37.3940    5.8280 C   0  0  0  0  0  0
   56.2710  -36.7310    4.5940 C   0  0  1  0  0  0
   57.3910  -35.7960    4.2870 C   0  0  0  0  0  0
   58.4430  -35.7890    4.9830 N   0  0  0  0  0  0
   59.4760  -34.9400    4.5970 O   0  0  0  0  0  0
   59.9719  -33.6421   -1.5730 H   0  0  0  0  0  0
   59.1586  -32.7830   -0.2213 H   0  0  0  0  0  0
   59.0113  -35.9166   -1.3820 H   0  0  0  0  0  0
   58.4968  -35.3744    0.2513 H   0  0  0  0  0  0
   62.5973  -33.4450   -6.2690 H   0  0  0  0  0  0
   60.6443  -33.6620   -3.2616 H   0  0  0  0  0  0
   59.7318  -30.4872   -5.1090 H   0  0  0  0  0  0
   56.9393  -29.1663   -2.1222 H   0  0  0  0  0  0
   57.4222  -31.1991   -0.7641 H   0  0  0  0  0  0
   57.0257  -33.6755   -0.7945 H   0  0  0  0  0  0
   57.5912  -34.2014   -2.4164 H   0  0  0  0  0  0
   58.7920  -28.7324   -3.5903 H   0  0  0  0  0  0
   57.4752  -29.6236   -4.4260 H   0  0  0  0  0  0
   56.0658  -35.6493   -1.1053 H   0  0  0  0  0  0
   57.0353  -37.0138   -1.7570 H   0  0  0  0  0  0
   55.5573  -37.5877    0.1374 H   0  0  0  0  0  0
   57.2932  -37.9555    0.4164 H   0  0  0  0  0  0
   57.2616  -36.7742    2.2861 H   0  0  0  0  0  0
   56.7292  -35.3105    1.3913 H   0  0  0  0  0  0
   54.8284  -35.3549    2.5092 H   0  0  0  0  0  0
   54.4278  -36.9452    1.7763 H   0  0  0  0  0  0
   53.5292  -38.1272    3.2836 H   0  0  0  0  0  0
   53.5567  -39.3204    5.4708 H   0  0  0  0  0  0
   55.3695  -38.8304    7.1335 H   0  0  0  0  0  0
   57.1252  -37.1739    6.5364 H   0  0  0  0  0  0
   55.1902  -36.5775    4.4589 H   0  0  0  0  0  0
   57.2889  -35.1046    3.4375 H   0  0  0  0  0  0
   60.4081  -34.9074    5.1802 H   0  0  0  0  0  0
  1 10  1  0  0  0
  1 11  1  0  0  0
  1 26  1  0  0  0
  1 27  1  0  0  0
  2 11  1  0  0  0
  2 13  1  0  0  0
  2 28  1  0  0  0
  2 29  1  0  0  0
  3  4  1  0  0  0
  3 30  1  0  0  0
  4  5  2  0  0  0
  5  6  1  0  0  0
  5 31  1  0  0  0
  6  7  2  0  0  0
  6 10  1  0  0  0
  7 12  1  0  0  0
  7 32  1  0  0  0
  8  9  2  0  0  0
  8 12  1  0  0  0
  8 33  1  0  0  0
  9 10  1  0  0  0
  9 34  1  0  0  0
 11 35  1  0  0  0
 11 36  1  0  0  0
 12 37  1  0  0  0
 12 38  1  0  0  0
 13 14  1  0  0  0
 13 39  1  0  0  0
 13 40  1  0  0  0
 14 15  1  0  0  0
 14 41  1  0  0  0
 14 42  1  0  0  0
 15 16  1  0  0  0
 15 43  1  0  0  0
 15 44  1  0  0  0
 16 17  1  0  0  0
 16 45  1  0  0  0
 16 46  1  0  0  0
 17 18  1  0  0  0
 17 22  1  0  0  0
 18 19  2  0  0  0
 18 47  1  0  0  0
 19 20  1  0  0  0
 19 48  1  0  0  0
 20 21  2  0  0  0
 20 49  1  0  0  0
 21 22  1  0  0  0
 21 50  1  0  0  0
 22 23  1  0  0  0
 22 51  1  0  0  0
 23 24  2  0  0  0
 23 52  1  0  0  0
 24 25  1  0  0  0
 25 53  1  0  0  0
M  END
> <s_m_source_file>
../5bwc_ligand.sdf

> <i_m_source_file_index>
1

> <s_epik_input>
W09IXS9OPVtDSF0vQzE9W0NIXVtDSDJdW0NIXT1bQ0hdTjFbQ0gyXVtDSDJdW0NIMl1bQ0gyXVtDSDJdW0NIMl1bQ0gyXU4yW0NIXT1bQ0hdW0NIXT1bQ0hdW0NASF0yL1tDSF09Ti9bT0hd

> <s_epik_cmdline>
J2VwaWtfYXBwJywgJy1pbWFlJywgJ2xpZ2FuZF9wcm8ubWFlJywgJy1vbWFlJywgJ2xpZ2FuZF9wcmVwLm1hZScsICctbXMnLCAnMScsICctcGgnLCAnNycsICctcGh0JywgJzAuNScsICctbnQn

> <r_lp_tautomer_probability>
1

> <r_epik_Ionization_Penalty>
  0.0002

> <r_epik_Ionization_Penalty_Charging>
  0.0000

> <r_epik_Ionization_Penalty_Neutral>
  0.0002

> <r_epik_State_Penalty>
 -0.0000

> <r_epik_Charging_Adjusted_Penalty>
5.52544725886947e-15

> <i_epik_Tot_Q>
0

> <i_epik_Tot_abs_Q>
0

> <s_epik_Chemistry_Notes>
This compound has an imine and may undergo hydrolysis.

$$$$
