5c0k_ligand
                    3D
 Schrodinger Suite 2020-3.
 31 30  0  0  1  0            999 V2000
  -16.2450  -16.0970   -3.1380 C   0  0  0  0  0  0
  -15.4860  -16.8460   -4.2280 C   0  0  0  0  0  0
  -13.9760  -16.6390   -4.0710 C   0  0  0  0  0  0
  -16.3400  -19.3000   -2.0540 C   0  0  0  0  0  0
  -15.7340  -20.0450   -0.8680 C   0  0  2  0  0  0
  -15.2750  -19.0550   -5.4510 C   0  0  0  0  0  0
  -15.8860  -18.3360   -4.2580 C   0  0  1  0  0  0
  -15.4870  -19.0210   -3.0400 N   0  0  0  0  0  0
  -17.5330  -18.9900   -2.0740 O   0  0  0  0  0  0
  -15.4760  -21.5100   -1.1870 C   0  0  0  0  0  0
  -16.6680  -19.9360    0.2850 N   0  3  0  0  0  0
  -14.1680  -19.5940   -5.3460 O   0  0  0  0  0  0
  -15.9910  -19.0550   -6.5650 N   0  0  0  0  0  0
  -15.9408  -15.0399   -3.1396 H   0  0  0  0  0  0
  -16.0158  -16.5430   -2.1590 H   0  0  0  0  0  0
  -17.3259  -16.1678   -3.3292 H   0  0  0  0  0  0
  -15.7669  -16.4187   -5.2019 H   0  0  0  0  0  0
  -13.7532  -15.5619   -4.0563 H   0  0  0  0  0  0
  -13.4516  -17.1105   -4.9152 H   0  0  0  0  0  0
  -13.6393  -17.0960   -3.1288 H   0  0  0  0  0  0
  -14.7702  -19.5856   -0.6034 H   0  0  0  0  0  0
  -16.9831  -18.4029   -4.3008 H   0  0  0  0  0  0
  -14.4413  -19.3331   -2.9018 H   0  0  0  0  0  0
  -14.7851  -21.5834   -2.0398 H   0  0  0  0  0  0
  -16.4261  -22.0027   -1.4413 H   0  0  0  0  0  0
  -15.0303  -22.0031   -0.3105 H   0  0  0  0  0  0
  -16.8502  -18.8748    0.5102 H   0  0  0  0  0  0
  -16.2243  -20.4265    1.1639 H   0  0  0  0  0  0
  -17.6201  -20.4261    0.0332 H   0  0  0  0  0  0
  -16.9706  -18.5551   -6.5892 H   0  0  0  0  0  0
  -15.6062  -19.5549   -7.4661 H   0  0  0  0  0  0
  1  2  1  0  0  0
  1 14  1  0  0  0
  1 15  1  0  0  0
  1 16  1  0  0  0
  2  3  1  0  0  0
  2  7  1  0  0  0
  2 17  1  0  0  0
  3 18  1  0  0  0
  3 19  1  0  0  0
  3 20  1  0  0  0
  4  5  1  0  0  0
  4  8  1  0  0  0
  4  9  2  0  0  0
  5 10  1  0  0  0
  5 11  1  0  0  0
  5 21  1  0  0  0
  6  7  1  0  0  0
  6 12  2  0  0  0
  6 13  1  0  0  0
  7  8  1  0  0  0
  7 22  1  0  0  0
  8 23  1  0  0  0
 10 24  1  0  0  0
 10 25  1  0  0  0
 10 26  1  0  0  0
 11 27  1  0  0  0
 11 28  1  0  0  0
 11 29  1  0  0  0
 13 30  1  0  0  0
 13 31  1  0  0  0
M  CHG  1  11   1
M  END
> <s_m_source_file>
../5c0k_ligand.sdf

> <i_m_source_file_index>
1

> <s_epik_input>
W0NIM11bQ0hdKFtDSDNdKVtDQEBIXShDKD1PKVtOSDJdKVtOSF1DKD1PKVtDQEhdKFtDSDNdKVtOSDMrXQ==

> <s_epik_cmdline>
J2VwaWtfYXBwJywgJy1pbWFlJywgJ2xpZ2FuZF9wcm8ubWFlJywgJy1vbWFlJywgJ2xpZ2FuZF9wcmVwLm1hZScsICctbXMnLCAnMScsICctcGgnLCAnNycsICctcGh0JywgJzAuNScsICctbnQn

> <r_epik_Ionization_Penalty>
  0.1175

> <r_epik_Ionization_Penalty_Charging>
  0.1175

> <r_epik_Ionization_Penalty_Neutral>
  0.0000

> <r_epik_State_Penalty>
  0.1071

> <r_epik_Charging_Adjusted_Penalty>
0.224566648610946

> <i_epik_Tot_Q>
1

> <i_epik_Tot_abs_Q>
1

$$$$
