5c11_ligand
                    3D
 Schrodinger Suite 2020-3.
123122  0  0  1  0            999 V2000
  -36.4090  -24.1970    0.9910 N   0  3  0  0  0  0
  -37.5430  -24.7090    1.7520 C   0  0  2  0  0  0
  -38.5070  -25.4710    0.8520 C   0  0  0  0  0  0
  -38.1490  -25.8750   -0.2530 O   0  0  0  0  0  0
  -38.2630  -23.5780    2.4490 C   0  0  0  0  0  0
  -39.7300  -25.6680    1.3340 N   0  0  0  0  0  0
  -40.7710  -26.3220    0.5510 C   0  0  2  0  0  0
  -41.2720  -25.3980   -0.5520 C   0  0  0  0  0  0
  -41.7660  -24.3040   -0.2810 O   0  0  0  0  0  0
  -41.9330  -26.7410    1.4500 C   0  0  0  0  0  0
  -41.6420  -27.9330    2.3460 C   0  0  0  0  0  0
  -42.6350  -28.0020    3.4940 C   0  0  0  0  0  0
  -42.4050  -26.9380    4.4670 N   0  0  0  0  0  0
  -43.2140  -26.6670    5.4840 C   0  0  0  0  0  0
  -44.3170  -27.3770    5.6620 N   0  3  0  0  0  0
  -42.9240  -25.6820    6.3210 N   0  0  0  0  0  0
  -41.1410  -25.8380   -1.7980 N   0  0  0  0  0  0
  -41.6040  -25.0420   -2.9280 C   0  0  2  0  0  0
  -42.7560  -25.7280   -3.6530 C   0  0  0  0  0  0
  -43.0810  -26.8840   -3.3660 O   0  0  0  0  0  0
  -40.4710  -24.7680   -3.9320 C   0  0  2  0  0  0
  -40.1610  -25.9680   -4.6490 O   0  0  0  0  0  0
  -39.2280  -24.2780   -3.2150 C   0  0  0  0  0  0
  -43.3760  -25.0070   -4.5820 N   0  0  0  0  0  0
  -44.5030  -25.5130   -5.2830 C   0  0  1  0  0  0
  -45.7200  -25.3000   -4.4150 C   0  0  0  0  0  0
  -47.0070  -25.7800   -5.0550 C   0  0  0  0  0  0
  -48.1720  -25.7360   -4.0850 C   0  0  0  0  0  0
  -48.5900  -24.3160   -3.7620 C   0  0  0  0  0  0
  -49.9120  -24.2590   -3.0280 C   0  0  0  0  0  0
  -51.0140  -24.7950   -3.9130 C   0  0  0  0  0  0
  -49.8330  -25.0880   -1.7650 C   0  0  0  0  0  0
  -50.2140  -22.8220   -2.6700 C   0  0  0  0  0  0
  -44.6720  -24.7350   -6.5670 C   0  0  0  0  0  0
  -44.3800  -23.5530   -6.6080 O   0  0  0  0  0  0
  -45.1330  -25.4050   -7.6200 N   0  0  0  0  0  0
  -45.4280  -24.7260   -8.8790 C   0  0  2  0  0  0
  -46.8690  -24.9880   -9.3090 C   0  0  0  0  0  0
  -47.2840  -26.1390   -9.4650 O   0  0  0  0  0  0
  -44.4650  -25.1640   -9.9850 C   0  0  0  0  0  0
  -44.5990  -24.3310  -11.2560 C   0  0  0  0  0  0
  -43.6040  -24.7170  -12.3310 C   0  0  0  0  0  0
  -43.9340  -25.4520  -13.2600 O   0  0  0  0  0  0
  -42.3830  -24.2130  -12.2170 N   0  0  0  0  0  0
  -47.6270  -23.9150   -9.5020 N   0  0  0  0  0  0
  -49.0290  -24.0350   -9.8730 C   0  0  2  0  0  0
  -49.2560  -23.6570  -11.3300 C   0  0  0  0  0  0
  -48.8480  -22.5880  -11.7770 O   0  0  0  0  0  0
  -49.9160  -23.1590   -8.9720 C   0  0  2  0  0  0
  -50.1350  -23.8300   -7.7260 O   0  0  0  0  0  0
  -51.2570  -22.8900   -9.6190 C   0  0  0  0  0  0
  -49.9090  -24.5490  -12.0670 N   0  0  0  0  0  0
  -50.2400  -24.3080  -13.4670 C   0  0  2  0  0  0
  -51.7450  -24.4060  -13.6870 C   0  0  0  0  0  0
  -52.5060  -23.5700  -13.2020 O   0  0  0  0  0  0
  -49.5080  -25.2900  -14.3650 C   0  0  0  0  0  0
  -52.2240  -25.3230  -14.3530 O   0  5  0  0  0  0
  -35.8964  -25.0317    0.4905 H   0  0  0  0  0  0
  -35.7083  -23.6920    1.6722 H   0  0  0  0  0  0
  -36.7670  -23.4812    0.2364 H   0  0  0  0  0  0
  -37.1160  -25.3929    2.5003 H   0  0  0  0  0  0
  -37.5564  -23.0364    3.0950 H   0  0  0  0  0  0
  -39.0808  -23.9860    3.0612 H   0  0  0  0  0  0
  -38.6759  -22.8883    1.6981 H   0  0  0  0  0  0
  -39.9460  -25.3212    2.3553 H   0  0  0  0  0  0
  -40.2949  -27.2091    0.1078 H   0  0  0  0  0  0
  -42.2055  -25.9047    2.1106 H   0  0  0  0  0  0
  -42.7982  -27.0137    0.8278 H   0  0  0  0  0  0
  -41.7153  -28.8600    1.7583 H   0  0  0  0  0  0
  -40.6273  -27.8410    2.7606 H   0  0  0  0  0  0
  -43.6573  -27.8987    3.1012 H   0  0  0  0  0  0
  -42.5354  -28.9698    4.0073 H   0  0  0  0  0  0
  -41.5134  -26.2993    4.3831 H   0  0  0  0  0  0
  -44.5618  -28.1958    4.9695 H   0  0  0  0  0  0
  -42.0085  -25.0894    6.1769 H   0  0  0  0  0  0
  -43.5987  -25.4567    7.1601 H   0  0  0  0  0  0
  -40.6748  -26.8192   -1.9707 H   0  0  0  0  0  0
  -41.9480  -24.1059   -2.4638 H   0  0  0  0  0  0
  -40.7859  -24.0303   -4.6847 H   0  0  0  0  0  0
  -40.9413  -26.4758   -5.2348 H   0  0  0  0  0  0
  -39.4626  -23.3559   -2.6630 H   0  0  0  0  0  0
  -38.4367  -24.0733   -3.9512 H   0  0  0  0  0  0
  -38.8829  -25.0493   -2.5107 H   0  0  0  0  0  0
  -42.9982  -23.9979   -4.8034 H   0  0  0  0  0  0
  -44.3187  -26.5783   -5.4858 H   0  0  0  0  0  0
  -45.5966  -25.8486   -3.4696 H   0  0  0  0  0  0
  -45.8364  -24.2268   -4.2037 H   0  0  0  0  0  0
  -47.2504  -25.1385   -5.9148 H   0  0  0  0  0  0
  -46.8819  -26.8183   -5.3960 H   0  0  0  0  0  0
  -49.0356  -26.2559   -4.5253 H   0  0  0  0  0  0
  -47.8858  -26.2314   -3.1455 H   0  0  0  0  0  0
  -47.8266  -23.8449   -3.1254 H   0  0  0  0  0  0
  -48.6937  -23.7430   -4.6952 H   0  0  0  0  0  0
  -50.7973  -25.8410   -4.1755 H   0  0  0  0  0  0
  -51.0735  -24.1914   -4.8307 H   0  0  0  0  0  0
  -51.9730  -24.7426   -3.3768 H   0  0  0  0  0  0
  -49.6132  -26.1337   -2.0260 H   0  0  0  0  0  0
  -50.7941  -25.0372   -1.2324 H   0  0  0  0  0  0
  -49.0342  -24.6958   -1.1183 H   0  0  0  0  0  0
  -50.2714  -22.2196   -3.5886 H   0  0  0  0  0  0
  -49.4153  -22.4296   -2.0234 H   0  0  0  0  0  0
  -51.1751  -22.7710   -2.1375 H   0  0  0  0  0  0
  -45.2913  -26.4898   -7.5299 H   0  0  0  0  0  0
  -45.2861  -23.6566   -8.6642 H   0  0  0  0  0  0
  -43.4288  -25.0661   -9.6290 H   0  0  0  0  0  0
  -44.6640  -26.2128  -10.2503 H   0  0  0  0  0  0
  -45.6076  -24.4613  -11.6751 H   0  0  0  0  0  0
  -44.4352  -23.2697  -11.0178 H   0  0  0  0  0  0
  -42.1348  -23.5597  -11.3676 H   0  0  0  0  0  0
  -41.6182  -24.4482  -12.9719 H   0  0  0  0  0  0
  -47.1746  -22.9203   -9.3759 H   0  0  0  0  0  0
  -49.2527  -25.1024   -9.7293 H   0  0  0  0  0  0
  -49.4143  -22.2063   -8.7469 H   0  0  0  0  0  0
  -49.2788  -24.1158   -7.0973 H   0  0  0  0  0  0
  -51.1043  -22.3742  -10.5785 H   0  0  0  0  0  0
  -51.8641  -22.2571   -8.9550 H   0  0  0  0  0  0
  -51.7775  -23.8432   -9.7939 H   0  0  0  0  0  0
  -50.2014  -25.4949  -11.5877 H   0  0  0  0  0  0
  -49.8979  -23.2856  -13.6853 H   0  0  0  0  0  0
  -48.4247  -25.2062  -14.1937 H   0  0  0  0  0  0
  -49.7316  -25.0613  -15.4175 H   0  0  0  0  0  0
  -49.8376  -26.3138  -14.1342 H   0  0  0  0  0  0
  -44.9888  -27.1482    6.5025 H   0  0  0  0  0  0
  1  2  1  0  0  0
  1 58  1  0  0  0
  1 59  1  0  0  0
  1 60  1  0  0  0
  2  3  1  0  0  0
  2  5  1  0  0  0
  2 61  1  0  0  0
  3  4  2  0  0  0
  3  6  1  0  0  0
  5 62  1  0  0  0
  5 63  1  0  0  0
  5 64  1  0  0  0
  6  7  1  0  0  0
  6 65  1  0  0  0
  7  8  1  0  0  0
  7 10  1  0  0  0
  7 66  1  0  0  0
  8  9  2  0  0  0
  8 17  1  0  0  0
 10 11  1  0  0  0
 10 67  1  0  0  0
 10 68  1  0  0  0
 11 12  1  0  0  0
 11 69  1  0  0  0
 11 70  1  0  0  0
 12 13  1  0  0  0
 12 71  1  0  0  0
 12 72  1  0  0  0
 13 14  1  0  0  0
 13 73  1  0  0  0
 14 15  2  0  0  0
 14 16  1  0  0  0
 15 74  1  0  0  0
 15123  1  0  0  0
 16 75  1  0  0  0
 16 76  1  0  0  0
 17 18  1  0  0  0
 17 77  1  0  0  0
 18 19  1  0  0  0
 18 21  1  0  0  0
 18 78  1  0  0  0
 19 20  2  0  0  0
 19 24  1  0  0  0
 21 22  1  0  0  0
 21 23  1  0  0  0
 21 79  1  0  0  0
 22 80  1  0  0  0
 23 81  1  0  0  0
 23 82  1  0  0  0
 23 83  1  0  0  0
 24 25  1  0  0  0
 24 84  1  0  0  0
 25 26  1  0  0  0
 25 34  1  0  0  0
 25 85  1  0  0  0
 26 27  1  0  0  0
 26 86  1  0  0  0
 26 87  1  0  0  0
 27 28  1  0  0  0
 27 88  1  0  0  0
 27 89  1  0  0  0
 28 29  1  0  0  0
 28 90  1  0  0  0
 28 91  1  0  0  0
 29 30  1  0  0  0
 29 92  1  0  0  0
 29 93  1  0  0  0
 30 31  1  0  0  0
 30 32  1  0  0  0
 30 33  1  0  0  0
 31 94  1  0  0  0
 31 95  1  0  0  0
 31 96  1  0  0  0
 32 97  1  0  0  0
 32 98  1  0  0  0
 32 99  1  0  0  0
 33100  1  0  0  0
 33101  1  0  0  0
 33102  1  0  0  0
 34 35  2  0  0  0
 34 36  1  0  0  0
 36 37  1  0  0  0
 36103  1  0  0  0
 37 38  1  0  0  0
 37 40  1  0  0  0
 37104  1  0  0  0
 38 39  2  0  0  0
 38 45  1  0  0  0
 40 41  1  0  0  0
 40105  1  0  0  0
 40106  1  0  0  0
 41 42  1  0  0  0
 41107  1  0  0  0
 41108  1  0  0  0
 42 43  2  0  0  0
 42 44  1  0  0  0
 44109  1  0  0  0
 44110  1  0  0  0
 45 46  1  0  0  0
 45111  1  0  0  0
 46 47  1  0  0  0
 46 49  1  0  0  0
 46112  1  0  0  0
 47 48  2  0  0  0
 47 52  1  0  0  0
 49 50  1  0  0  0
 49 51  1  0  0  0
 49113  1  0  0  0
 50114  1  0  0  0
 51115  1  0  0  0
 51116  1  0  0  0
 51117  1  0  0  0
 52 53  1  0  0  0
 52118  1  0  0  0
 53 54  1  0  0  0
 53 56  1  0  0  0
 53119  1  0  0  0
 54 55  2  0  0  0
 54 57  1  0  0  0
 56120  1  0  0  0
 56121  1  0  0  0
 56122  1  0  0  0
M  CHG  3   1   1  15   1  57  -1
M  END
> <s_m_source_file>
../5c11_ligand.sdf

> <i_m_source_file_index>
1

> <s_epik_input>
W0hdL049QyhbTkgyXSlcW05IXVtDSDJdW0NIMl1bQ0gyXVtDQEhdKFtOSF1DKD1PKVtDQEBIXShbTkgzK10pW0NIM10pQyg9TylbTkhdW0NAQEhdKFtDQEhdKFtPSF0pW0NIM10pQyg9TylbTkhdW0NAQEhdKFtDSDJdW0NIMl1bQ0gyXVtDSDJdQyhbQ0gzXSkoW0NIM10pW0NIM10pQyg9TylbTkhdW0NAQEhdKFtDSDJdW0NIMl1DKD1PKVtOSDJdKUMoPU8pW05IXVtDQEBIXShbQ0BIXShbT0hdKVtDSDNdKUMoPU8pW05IXVtDQEBIXShbQ0gzXSlDKD1PKVtPSF0=

> <s_epik_cmdline>
J2VwaWtfYXBwJywgJy1pbWFlJywgJ2xpZ2FuZF9wcm8ubWFlJywgJy1vbWFlJywgJ2xpZ2FuZF9wcmVwLm1hZScsICctbXMnLCAnMScsICctcGgnLCAnNycsICctcGh0JywgJzAuNScsICctbnQn

> <r_epik_Ionization_Penalty>
  0.1252

> <r_epik_Ionization_Penalty_Charging>
  0.1252

> <r_epik_Ionization_Penalty_Neutral>
  0.0000

> <r_epik_State_Penalty>
  0.1145

> <r_epik_Charging_Adjusted_Penalty>
0.239759325379152

> <i_epik_Tot_Q>
1

> <i_epik_Tot_abs_Q>
3

> <s_epik_Chemistry_Notes>
This compound has an imine and may undergo hydrolysis.

$$$$
