5c13_ligand
                    3D
 Schrodinger Suite 2020-3.
113112  0  0  1  0            999 V2000
   13.7220   -0.1780   33.2540 N   0  3  0  0  0  0
   13.2910    0.8800   34.1950 C   0  0  2  0  0  0
   13.7900    0.5980   35.6060 C   0  0  0  0  0  0
   14.7010   -0.2130   35.8170 O   0  0  0  0  0  0
   11.8050    0.9840   34.1800 C   0  0  0  0  0  0
   13.2270    1.3010   36.5690 N   0  0  0  0  0  0
   13.5220    1.0480   37.9780 C   0  0  2  0  0  0
   12.5700    0.0110   38.5520 C   0  0  0  0  0  0
   11.3470    0.1860   38.4930 O   0  0  0  0  0  0
   13.4530    2.3530   38.7630 C   0  0  0  0  0  0
   14.2170    3.4970   38.1280 C   0  0  0  0  0  0
   13.8940    4.8110   38.8190 C   0  0  0  0  0  0
   12.5450    5.2160   38.4760 N   0  0  0  0  0  0
   11.6110    5.5990   39.3460 C   0  0  0  0  0  0
   11.8630    5.6700   40.6450 N   0  3  0  0  0  0
   10.4060    5.9350   38.9010 N   0  0  0  0  0  0
   13.1310   -1.0720   39.0920 N   0  0  0  0  0  0
   12.3620   -2.1430   39.7170 C   0  0  2  0  0  0
   12.9020   -2.4880   41.1150 C   0  0  0  0  0  0
   14.0470   -2.1400   41.4840 O   0  0  0  0  0  0
   12.3780   -3.4230   38.8510 C   0  0  2  0  0  0
   13.7260   -3.8690   38.6940 O   0  0  0  0  0  0
   11.7530   -3.1600   37.4620 C   0  0  0  0  0  0
   12.0900   -3.1960   41.8950 N   0  0  0  0  0  0
   12.5620   -3.6690   43.1550 C   0  0  1  0  0  0
   12.4730   -2.5500   44.1840 C   0  0  0  0  0  0
   11.0380   -2.1030   44.5330 C   0  0  0  0  0  0
   11.0430   -1.0130   45.6590 C   0  0  0  0  0  0
    9.6380   -0.5100   45.9870 C   0  0  0  0  0  0
    9.4820    0.6090   47.0560 C   0  0  0  0  0  0
    9.9340    0.1530   48.3820 C   0  0  0  0  0  0
   10.2150    1.8950   46.6930 C   0  0  0  0  0  0
    8.0090    0.9300   47.2140 C   0  0  0  0  0  0
   11.8620   -4.9480   43.6470 C   0  0  0  0  0  0
   10.8690   -5.4090   43.1250 O   0  0  0  0  0  0
   12.5700   -5.5950   44.5850 N   0  0  0  0  0  0
   12.1200   -6.8220   45.2810 C   0  0  2  0  0  0
   12.6970   -6.8240   46.6980 C   0  0  0  0  0  0
   13.6950   -6.1700   46.9430 O   0  0  0  0  0  0
   12.6000   -8.0780   44.5740 C   0  0  0  0  0  0
   13.0030   -7.8770   43.1560 C   0  0  0  0  0  0
   13.5010   -9.1580   42.5160 C   0  0  0  0  0  0
   13.9600  -10.0780   43.2100 O   0  0  0  0  0  0
   13.4050   -9.2300   41.1790 N   0  0  0  0  0  0
   12.1140   -7.5960   47.6020 N   0  0  0  0  0  0
   12.7420   -7.8140   48.8960 C   0  0  2  0  0  0
   13.9250   -8.7810   48.7470 C   0  0  0  0  0  0
   15.0050   -8.5340   49.3150 O   0  0  0  0  0  0
   11.7270   -8.3440   49.9250 C   0  0  2  0  0  0
   10.9290   -7.2490   50.3840 O   0  0  0  0  0  0
   12.4100   -8.9590   51.1250 C   0  0  0  0  0  0
   13.8030   -9.8110   48.0580 O   0  5  0  0  0  0
   14.8193   -0.2542   33.2656 H   0  0  0  0  0  0
   13.3827    0.0741   32.2385 H   0  0  0  0  0  0
   13.2844   -1.1401   33.5586 H   0  0  0  0  0  0
   13.7188    1.8310   33.8449 H   0  0  0  0  0  0
   11.4620    1.1876   33.1548 H   0  0  0  0  0  0
   11.4881    1.8032   34.8421 H   0  0  0  0  0  0
   11.3677    0.0380   34.5319 H   0  0  0  0  0  0
   12.5191    2.0951   36.2893 H   0  0  0  0  0  0
   14.5441    0.6433   38.0168 H   0  0  0  0  0  0
   12.4043    2.6730   38.8508 H   0  0  0  0  0  0
   13.8749    2.1996   39.7672 H   0  0  0  0  0  0
   15.2973    3.3081   38.2127 H   0  0  0  0  0  0
   13.9410    3.5776   37.0662 H   0  0  0  0  0  0
   13.9730    4.6814   39.9085 H   0  0  0  0  0  0
   14.6046    5.5831   38.4891 H   0  0  0  0  0  0
   12.2234    5.2227   37.4241 H   0  0  0  0  0  0
   12.8567    5.3949   41.0283 H   0  0  0  0  0  0
   10.1822    5.8811   37.8254 H   0  0  0  0  0  0
    9.6315    6.2673   39.6080 H   0  0  0  0  0  0
   14.2284   -1.1350   39.0502 H   0  0  0  0  0  0
   11.3493   -1.7196   39.7881 H   0  0  0  0  0  0
   11.8495   -4.2430   39.3593 H   0  0  0  0  0  0
   14.3334   -4.1067   39.5798 H   0  0  0  0  0  0
   10.7153   -2.8168   37.5859 H   0  0  0  0  0  0
   11.7641   -4.0890   36.8731 H   0  0  0  0  0  0
   12.3348   -2.3870   36.9385 H   0  0  0  0  0  0
   11.0612   -3.4175   41.5747 H   0  0  0  0  0  0
   13.6087   -3.9288   42.9384 H   0  0  0  0  0  0
   12.9397   -2.8786   45.1243 H   0  0  0  0  0  0
   12.9982   -1.6608   43.8051 H   0  0  0  0  0  0
   10.5575   -1.6811   43.6379 H   0  0  0  0  0  0
   10.4595   -2.9696   44.8857 H   0  0  0  0  0  0
   11.4757   -1.4365   46.5774 H   0  0  0  0  0  0
   11.6451   -0.1520   45.3332 H   0  0  0  0  0  0
    9.1749   -0.0974   45.0785 H   0  0  0  0  0  0
    9.0281   -1.3448   46.3628 H   0  0  0  0  0  0
   11.0039   -0.0986   48.3381 H   0  0  0  0  0  0
    9.3599   -0.7371   48.6790 H   0  0  0  0  0  0
    9.7756    0.9542   49.1189 H   0  0  0  0  0  0
   11.2880    1.6842   46.5734 H   0  0  0  0  0  0
   10.0739    2.6360   47.4937 H   0  0  0  0  0  0
    9.8121    2.2930   45.7500 H   0  0  0  0  0  0
    7.4602    0.0136   47.4767 H   0  0  0  0  0  0
    7.6181    1.3332   46.2681 H   0  0  0  0  0  0
    7.8799    1.6762   48.0119 H   0  0  0  0  0  0
   13.5477   -5.1527   44.8267 H   0  0  0  0  0  0
   11.0203   -6.7994   45.2708 H   0  0  0  0  0  0
   13.4775   -8.4821   45.0999 H   0  0  0  0  0  0
   11.7956   -8.8283   44.5728 H   0  0  0  0  0  0
   12.1393   -7.5186   42.5767 H   0  0  0  0  0  0
   13.8118   -7.1331   43.1066 H   0  0  0  0  0  0
   12.9898   -8.3844   40.6111 H   0  0  0  0  0  0
   13.7416  -10.1346   40.6513 H   0  0  0  0  0  0
   11.1504   -8.0735   47.3709 H   0  0  0  0  0  0
   13.0981   -6.8238   49.2165 H   0  0  0  0  0  0
   11.0636   -9.0885   49.4606 H   0  0  0  0  0  0
   10.3421   -6.6572   49.6661 H   0  0  0  0  0  0
   13.0318   -9.8058   50.7989 H   0  0  0  0  0  0
   11.6505   -9.3145   51.8369 H   0  0  0  0  0  0
   13.0447   -8.2043   51.6124 H   0  0  0  0  0  0
   11.0785    6.0041   41.3400 H   0  0  0  0  0  0
  1  2  1  0  0  0
  1 53  1  0  0  0
  1 54  1  0  0  0
  1 55  1  0  0  0
  2  3  1  0  0  0
  2  5  1  0  0  0
  2 56  1  0  0  0
  3  4  2  0  0  0
  3  6  1  0  0  0
  5 57  1  0  0  0
  5 58  1  0  0  0
  5 59  1  0  0  0
  6  7  1  0  0  0
  6 60  1  0  0  0
  7  8  1  0  0  0
  7 10  1  0  0  0
  7 61  1  0  0  0
  8  9  2  0  0  0
  8 17  1  0  0  0
 10 11  1  0  0  0
 10 62  1  0  0  0
 10 63  1  0  0  0
 11 12  1  0  0  0
 11 64  1  0  0  0
 11 65  1  0  0  0
 12 13  1  0  0  0
 12 66  1  0  0  0
 12 67  1  0  0  0
 13 14  1  0  0  0
 13 68  1  0  0  0
 14 15  2  0  0  0
 14 16  1  0  0  0
 15 69  1  0  0  0
 15113  1  0  0  0
 16 70  1  0  0  0
 16 71  1  0  0  0
 17 18  1  0  0  0
 17 72  1  0  0  0
 18 19  1  0  0  0
 18 21  1  0  0  0
 18 73  1  0  0  0
 19 20  2  0  0  0
 19 24  1  0  0  0
 21 22  1  0  0  0
 21 23  1  0  0  0
 21 74  1  0  0  0
 22 75  1  0  0  0
 23 76  1  0  0  0
 23 77  1  0  0  0
 23 78  1  0  0  0
 24 25  1  0  0  0
 24 79  1  0  0  0
 25 26  1  0  0  0
 25 34  1  0  0  0
 25 80  1  0  0  0
 26 27  1  0  0  0
 26 81  1  0  0  0
 26 82  1  0  0  0
 27 28  1  0  0  0
 27 83  1  0  0  0
 27 84  1  0  0  0
 28 29  1  0  0  0
 28 85  1  0  0  0
 28 86  1  0  0  0
 29 30  1  0  0  0
 29 87  1  0  0  0
 29 88  1  0  0  0
 30 31  1  0  0  0
 30 32  1  0  0  0
 30 33  1  0  0  0
 31 89  1  0  0  0
 31 90  1  0  0  0
 31 91  1  0  0  0
 32 92  1  0  0  0
 32 93  1  0  0  0
 32 94  1  0  0  0
 33 95  1  0  0  0
 33 96  1  0  0  0
 33 97  1  0  0  0
 34 35  2  0  0  0
 34 36  1  0  0  0
 36 37  1  0  0  0
 36 98  1  0  0  0
 37 38  1  0  0  0
 37 40  1  0  0  0
 37 99  1  0  0  0
 38 39  2  0  0  0
 38 45  1  0  0  0
 40 41  1  0  0  0
 40100  1  0  0  0
 40101  1  0  0  0
 41 42  1  0  0  0
 41102  1  0  0  0
 41103  1  0  0  0
 42 43  2  0  0  0
 42 44  1  0  0  0
 44104  1  0  0  0
 44105  1  0  0  0
 45 46  1  0  0  0
 45106  1  0  0  0
 46 47  1  0  0  0
 46 49  1  0  0  0
 46107  1  0  0  0
 47 48  2  0  0  0
 47 52  1  0  0  0
 49 50  1  0  0  0
 49 51  1  0  0  0
 49108  1  0  0  0
 50109  1  0  0  0
 51110  1  0  0  0
 51111  1  0  0  0
 51112  1  0  0  0
M  CHG  3   1   1  15   1  52  -1
M  END
> <s_m_source_file>
../5c13_ligand.sdf

> <i_m_source_file_index>
1

> <s_epik_input>
W0hdL049QyhbTkgyXSlcW05IXVtDSDJdW0NIMl1bQ0gyXVtDQEhdKFtOSF1DKD1PKVtDQEBIXShbTkgzK10pW0NIM10pQyg9TylbTkhdW0NAQEhdKFtDQEhdKFtPSF0pW0NIM10pQyg9TylbTkhdW0NAQEhdKFtDSDJdW0NIMl1bQ0gyXVtDSDJdQyhbQ0gzXSkoW0NIM10pW0NIM10pQyg9TylbTkhdW0NAQEhdKFtDSDJdW0NIMl1DKD1PKVtOSDJdKUMoPU8pW05IXVtDQEhdKEMoPU8pW09IXSlbQ0BIXShbT0hdKVtDSDNd

> <s_epik_cmdline>
J2VwaWtfYXBwJywgJy1pbWFlJywgJ2xpZ2FuZF9wcm8ubWFlJywgJy1vbWFlJywgJ2xpZ2FuZF9wcmVwLm1hZScsICctbXMnLCAnMScsICctcGgnLCAnNycsICctcGh0JywgJzAuNScsICctbnQn

> <r_epik_Ionization_Penalty>
  0.1252

> <r_epik_Ionization_Penalty_Charging>
  0.1252

> <r_epik_Ionization_Penalty_Neutral>
  0.0000

> <r_epik_State_Penalty>
  0.1145

> <r_epik_Charging_Adjusted_Penalty>
0.239736109172051

> <i_epik_Tot_Q>
1

> <i_epik_Tot_abs_Q>
3

> <s_epik_Chemistry_Notes>
This compound has an imine and may undergo hydrolysis.

$$$$
