5c1m_ligand
                    3D
 Schrodinger Suite 2020-3.
 66 72  0  0  1  0            999 V2000
    2.3670   15.4790  -57.7720 C   0  0  0  0  0  0
    1.9260   15.5610  -56.2920 C   0  0  0  0  0  0
    1.1310   16.7970  -56.0740 N   0  3  2  0  0  0
    0.7860   16.9300  -54.6350 C   0  0  0  0  0  0
   -0.0920   16.8030  -56.9170 C   0  0  2  0  0  0
   -1.0260   15.5760  -56.6780 C   0  0  0  0  0  0
   -0.7240   14.4520  -57.4860 C   0  0  0  0  0  0
   -1.4980   13.3080  -57.3180 C   0  0  0  0  0  0
   -1.2710   12.1570  -58.0720 C   0  0  0  0  0  0
   -0.2530   12.1530  -59.0150 C   0  0  0  0  0  0
   -0.0150   11.0300  -59.7590 O   0  0  0  0  0  0
    0.5220   13.2940  -59.1890 C   0  0  0  0  0  0
    0.2990   14.4640  -58.4550 C   0  0  0  0  0  0
    1.1300   15.6050  -58.6990 C   0  0  2  0  0  0
    1.5630   15.7190  -60.2190 C   0  0  2  0  0  0
    2.9110   16.3220  -60.5050 N   0  3  0  0  0  0
    0.7060   16.8040  -60.9230 C   0  0  1  0  0  0
    0.9270   16.7990  -62.3580 O   0  0  0  0  0  0
    0.5320   15.5530  -62.9460 C   0  0  0  0  0  0
   -0.6630   16.7450  -60.5930 C   0  0  0  0  0  0
   -0.8980   16.7960  -59.2190 C   0  0  0  0  0  0
    0.2500   16.8410  -58.4010 C   0  0  1  0  0  0
    0.9020   18.1530  -58.7940 C   0  0  0  0  0  0
    1.2960   18.0670  -60.2780 C   0  0  2  0  0  0
    0.8330   19.3270  -61.0260 C   0  0  0  0  0  0
    2.8120   17.7520  -60.1860 C   0  0  2  0  0  0
    3.7260   18.8390  -60.1830 C   0  0  0  0  0  0
    4.0280   19.6960  -61.2230 C   0  0  0  0  0  0
    4.9290   20.7350  -61.0030 C   0  0  0  0  0  0
    5.5380   20.9230  -59.7670 C   0  0  0  0  0  0
    5.2390   20.0640  -58.7180 C   0  0  0  0  0  0
    4.3370   19.0320  -58.9380 C   0  0  0  0  0  0
    3.0694   16.2967  -57.9911 H   0  0  0  0  0  0
    2.8604   14.5130  -57.9546 H   0  0  0  0  0  0
    1.3111   14.6834  -56.0435 H   0  0  0  0  0  0
    2.8153   15.5807  -55.6449 H   0  0  0  0  0  0
    1.7409   17.6625  -56.3722 H   0  0  0  0  0  0
    1.7078   16.9227  -54.0348 H   0  0  0  0  0  0
    0.1448   16.0890  -54.3325 H   0  0  0  0  0  0
    0.2500   17.8767  -54.4724 H   0  0  0  0  0  0
   -0.5843   17.7353  -56.6034 H   0  0  0  0  0  0
   -0.9447   15.2520  -55.6300 H   0  0  0  0  0  0
   -2.0665   15.8596  -56.8945 H   0  0  0  0  0  0
   -2.3002   13.3115  -56.5801 H   0  0  0  0  0  0
   -1.8866   11.2700  -57.9222 H   0  0  0  0  0  0
   -0.6341   10.1324  -59.6135 H   0  0  0  0  0  0
    1.3295   13.2765  -59.9210 H   0  0  0  0  0  0
    1.5246   14.6771  -60.5698 H   0  0  0  0  0  0
    3.6716   15.8337  -59.8781 H   0  0  0  0  0  0
    3.1609   16.1748  -61.5661 H   0  0  0  0  0  0
    0.7132   15.5856  -64.0305 H   0  0  0  0  0  0
   -0.5382   15.3818  -62.7580 H   0  0  0  0  0  0
    1.1179   14.7354  -62.5007 H   0  0  0  0  0  0
   -1.5079   16.6667  -61.2930 H   0  0  0  0  0  0
   -1.9296   16.7992  -58.8372 H   0  0  0  0  0  0
    0.1902   18.9772  -58.6386 H   0  0  0  0  0  0
    1.7956   18.3185  -58.1742 H   0  0  0  0  0  0
   -0.2646   19.3914  -60.9914 H   0  0  0  0  0  0
    1.1643   19.2740  -62.0736 H   0  0  0  0  0  0
    1.2678   20.2174  -60.5485 H   0  0  0  0  0  0
    3.6655   17.7995  -59.4937 H   0  0  0  0  0  0
    3.5679   19.5612  -62.2019 H   0  0  0  0  0  0
    5.1626   21.4178  -61.8199 H   0  0  0  0  0  0
    6.2455   21.7395  -59.6227 H   0  0  0  0  0  0
    5.7034   20.1973  -57.7409 H   0  0  0  0  0  0
    4.0979   18.3534  -58.1192 H   0  0  0  0  0  0
  1  2  1  0  0  0
  1 14  1  0  0  0
  1 33  1  0  0  0
  1 34  1  0  0  0
  2  3  1  0  0  0
  2 35  1  0  0  0
  2 36  1  0  0  0
  3  4  1  0  0  0
  3  5  1  0  0  0
  3 37  1  0  0  0
  4 38  1  0  0  0
  4 39  1  0  0  0
  4 40  1  0  0  0
  5  6  1  0  0  0
  5 22  1  0  0  0
  5 41  1  0  0  0
  6  7  1  0  0  0
  6 42  1  0  0  0
  6 43  1  0  0  0
  7  8  2  0  0  0
  7 13  1  0  0  0
  8  9  1  0  0  0
  8 44  1  0  0  0
  9 10  2  0  0  0
  9 45  1  0  0  0
 10 11  1  0  0  0
 10 12  1  0  0  0
 11 46  1  0  0  0
 12 13  2  0  0  0
 12 47  1  0  0  0
 13 14  1  0  0  0
 14 15  1  0  0  0
 14 22  1  0  0  0
 15 16  1  0  0  0
 15 17  1  0  0  0
 15 48  1  0  0  0
 16 26  1  0  0  0
 16 49  1  0  0  0
 16 50  1  0  0  0
 17 18  1  0  0  0
 17 20  1  0  0  0
 17 24  1  0  0  0
 18 19  1  0  0  0
 19 51  1  0  0  0
 19 52  1  0  0  0
 19 53  1  0  0  0
 20 21  2  0  0  0
 20 54  1  0  0  0
 21 22  1  0  0  0
 21 55  1  0  0  0
 22 23  1  0  0  0
 23 24  1  0  0  0
 23 56  1  0  0  0
 23 57  1  0  0  0
 24 25  1  0  0  0
 24 26  1  0  0  0
 25 58  1  0  0  0
 25 59  1  0  0  0
 25 60  1  0  0  0
 26 27  1  0  0  0
 26 61  1  0  0  0
 27 28  2  0  0  0
 27 32  1  0  0  0
 28 29  1  0  0  0
 28 62  1  0  0  0
 29 30  2  0  0  0
 29 63  1  0  0  0
 30 31  1  0  0  0
 30 64  1  0  0  0
 31 32  2  0  0  0
 31 65  1  0  0  0
 32 66  1  0  0  0
M  CHG  2   3   1  16   1
M  END
> <s_m_source_file>
../5c1m_ligand.sdf

> <i_m_source_file_index>
1

> <s_epik_input>
W2NIXTFbY0hdYyhbT0hdKVtjSF1jMmMxW0NIMl1bQ0BASF0oW05AQEgrXShbQ0gzXSlbQ0gyXVtDSDJdMylbQ0BAXTQoW0NAXTIzNSlbQ0hdPVtDSF1bQ0BdNihPW0NIM10pW0NASF01W05IMitdW0NASF0oW0NAQF02KFtDSDJdNClbQ0gzXSljN1tjSF1bY0hdW2NIXVtjSF1bY0hdNw==

> <s_epik_cmdline>
J2VwaWtfYXBwJywgJy1pbWFlJywgJ2xpZ2FuZF9wcm8ubWFlJywgJy1vbWFlJywgJ2xpZ2FuZF9wcmVwLm1hZScsICctbXMnLCAnMScsICctcGgnLCAnNycsICctcGh0JywgJzAuNScsICctbnQn

> <r_lp_tautomer_probability>
0.999999999997365

> <r_epik_Ionization_Penalty>
  0.6385

> <r_epik_Ionization_Penalty_Charging>
  0.6277

> <r_epik_Ionization_Penalty_Neutral>
  0.0108

> <r_epik_State_Penalty>
  0.3666

> <r_epik_Charging_Adjusted_Penalty>
0.994321830553067

> <i_epik_Tot_Q>
2

> <i_epik_Tot_abs_Q>
2

$$$$
