5c26_ligand
                    3D
 Schrodinger Suite 2020-3.
 48 51  0  0  1  0            999 V2000
   -1.8760    0.2660  -13.7480 N   0  0  0  0  0  0
   -4.0070    1.3430  -13.4920 C   0  0  0  0  0  0
   -2.9260    5.1040  -10.0380 C   0  0  0  0  0  0
   -2.8380    3.1440  -11.5770 C   0  0  0  0  0  0
    1.8300   -2.8830  -15.9950 C   0  0  0  0  0  0
    2.6500   -2.0880  -15.2110 C   0  0  0  0  0  0
    2.1080   -1.0520  -14.4680 C   0  0  0  0  0  0
   -1.0060    3.5970  -10.0670 C   0  0  0  0  0  0
   -0.3450    2.4900  -10.5500 C   0  0  0  0  0  0
   -0.9350    1.7200  -11.5360 C   0  0  0  0  0  0
    0.4720   -2.6220  -16.0430 C   0  0  0  0  0  0
    0.7440   -0.8040  -14.5260 C   0  0  0  0  0  0
   -5.5230   -0.4430  -16.1050 C   0  0  0  0  0  0
   -5.6850    0.4970  -15.1120 C   0  0  0  0  0  0
   -2.1720    2.0290  -12.0650 C   0  0  0  0  0  0
   -2.2500    3.9090  -10.5770 C   0  0  0  0  0  0
   -0.0910   -1.5880  -15.3100 C   0  0  0  0  0  0
   -3.6330   -0.3110  -15.1450 C   0  0  0  0  0  0
   -2.7270    1.1750  -13.1310 C   0  0  0  0  0  0
   -2.2750   -0.4710  -14.7510 C   0  0  0  0  0  0
    4.6030   -2.8320  -16.2930 C   0  0  0  0  0  0
    2.3050    0.5840  -12.8090 C   0  0  0  0  0  0
   -4.2400   -0.9420  -16.1250 N   0  0  0  0  0  0
   -4.4640    0.5610  -14.5110 N   0  0  0  0  0  0
   -4.2970    5.0980  -10.1370 N   0  0  0  0  0  0
   -1.4880   -1.3990  -15.4240 N   0  0  0  0  0  0
   -2.2630    6.0070   -9.5450 O   0  0  0  0  0  0
    4.0310   -2.3040  -15.0950 O   0  0  0  0  0  0
    2.9970   -0.2890  -13.7000 O   0  0  0  0  0  0
   -4.6507    2.0690  -12.9953 H   0  0  0  0  0  0
   -3.8151    3.4178  -11.9750 H   0  0  0  0  0  0
    2.2513   -3.7078  -16.5697 H   0  0  0  0  0  0
   -0.5537    4.2176   -9.2935 H   0  0  0  0  0  0
    0.6363    2.2223  -10.1582 H   0  0  0  0  0  0
   -0.4066    0.8417  -11.9069 H   0  0  0  0  0  0
   -0.1687   -3.2420  -16.6700 H   0  0  0  0  0  0
    0.3223    0.0181  -13.9477 H   0  0  0  0  0  0
   -6.3121   -0.7534  -16.7899 H   0  0  0  0  0  0
   -6.5842    1.0608  -14.8636 H   0  0  0  0  0  0
    5.6831   -2.9820  -16.1484 H   0  0  0  0  0  0
    4.4383   -2.1258  -17.1201 H   0  0  0  0  0  0
    4.1280   -3.7947  -16.5328 H   0  0  0  0  0  0
    3.0340    1.1647  -12.2248 H   0  0  0  0  0  0
    1.6782   -0.0096  -12.1272 H   0  0  0  0  0  0
    1.6692    1.2700  -13.3879 H   0  0  0  0  0  0
   -4.8115    4.2413  -10.5967 H   0  0  0  0  0  0
   -4.8796    5.9499   -9.7565 H   0  0  0  0  0  0
   -2.0742   -2.0294  -16.1088 H   0  0  0  0  0  0
  1 19  1  0  0  0
  1 20  2  0  0  0
  2 19  2  0  0  0
  2 24  1  0  0  0
  2 30  1  0  0  0
  3 16  1  0  0  0
  3 25  1  0  0  0
  3 27  2  0  0  0
  4 15  2  0  0  0
  4 16  1  0  0  0
  4 31  1  0  0  0
  5  6  2  0  0  0
  5 11  1  0  0  0
  5 32  1  0  0  0
  6  7  1  0  0  0
  6 28  1  0  0  0
  7 12  2  0  0  0
  7 29  1  0  0  0
  8  9  1  0  0  0
  8 16  2  0  0  0
  8 33  1  0  0  0
  9 10  2  0  0  0
  9 34  1  0  0  0
 10 15  1  0  0  0
 10 35  1  0  0  0
 11 17  2  0  0  0
 11 36  1  0  0  0
 12 17  1  0  0  0
 12 37  1  0  0  0
 13 14  2  0  0  0
 13 23  1  0  0  0
 13 38  1  0  0  0
 14 24  1  0  0  0
 14 39  1  0  0  0
 15 19  1  0  0  0
 17 26  1  0  0  0
 18 20  1  0  0  0
 18 23  2  0  0  0
 18 24  1  0  0  0
 20 26  1  0  0  0
 21 28  1  0  0  0
 21 40  1  0  0  0
 21 41  1  0  0  0
 21 42  1  0  0  0
 22 29  1  0  0  0
 22 43  1  0  0  0
 22 44  1  0  0  0
 22 45  1  0  0  0
 25 46  1  0  0  0
 25 47  1  0  0  0
 26 48  1  0  0  0
M  END
> <s_m_source_file>
../5c26_ligand.sdf

> <i_m_source_file_index>
1

> <s_epik_input>
W2NIXTFbY0hdW2NIXWMoQyg9TylbTkgyXSlbY0hdYzEtYyhbY0hdbihjMjMpW2NIXVtjSF1uMyluYzJbTkhdYyhbY0hdYzRPW0NIM10pW2NIXVtjSF1jNE9bQ0gzXQ==

> <s_epik_cmdline>
J2VwaWtfYXBwJywgJy1pbWFlJywgJ2xpZ2FuZF9wcm8ubWFlJywgJy1vbWFlJywgJ2xpZ2FuZF9wcmVwLm1hZScsICctbXMnLCAnMScsICctcGgnLCAnNycsICctcGh0JywgJzAuNScsICctbnQn

> <r_lp_tautomer_probability>
1

> <r_epik_Ionization_Penalty>
  0.0021

> <r_epik_Ionization_Penalty_Charging>
  0.0021

> <r_epik_Ionization_Penalty_Neutral>
  0.0000

> <r_epik_State_Penalty>
 -0.0000

> <r_epik_Charging_Adjusted_Penalty>
0.00213669857005692

> <i_epik_Tot_Q>
0

> <i_epik_Tot_abs_Q>
0

$$$$
