5c29_ligand
                    3D
 Schrodinger Suite 2020-3.
 31 32  0  0  1  0            999 V2000
    4.8620   12.5830   43.4110 C   0  0  0  0  0  0
    4.5790   14.4130   40.1590 C   0  0  0  0  0  0
    4.9200   15.8480   39.7370 C   0  0  0  0  0  0
    8.5560   10.5320   42.1220 C   0  0  0  0  0  0
    7.5880   11.1960   43.1000 C   0  0  0  0  0  0
    6.2090   10.5290   43.0670 C   0  0  0  0  0  0
    3.6910   14.5570   43.7410 C   0  0  0  0  0  0
    3.7470   14.9190   42.4540 N   0  0  0  0  0  0
    4.4260   14.0960   41.6270 C   0  0  0  0  0  0
    4.9680   12.9440   42.0950 N   0  0  0  0  0  0
    4.1960   13.4030   44.3420 C   0  0  0  0  0  0
    3.5350   15.2710   39.4330 C   0  0  0  0  0  0
    4.0380   13.0760   45.8210 C   0  0  0  0  0  0
    2.8110   15.7030   44.6720 Cl  0  0  0  0  0  0
    5.4140   11.4470   43.8980 N   0  0  0  0  0  0
    5.0115   13.4146   39.9973 H   0  0  0  0  0  0
    5.1765   16.4409   40.6274 H   0  0  0  0  0  0
    5.7765   15.8336   39.0469 H   0  0  0  0  0  0
    9.5324   11.0360   42.1734 H   0  0  0  0  0  0
    8.1562   10.6105   41.1002 H   0  0  0  0  0  0
    8.6763    9.4715   42.3883 H   0  0  0  0  0  0
    7.9878   11.1175   44.1218 H   0  0  0  0  0  0
    7.4677   12.2565   42.8338 H   0  0  0  0  0  0
    5.8554   10.4692   42.0271 H   0  0  0  0  0  0
    6.2817    9.5155   43.4884 H   0  0  0  0  0  0
    3.2473   14.7799   38.4917 H   0  0  0  0  0  0
    2.6473   15.3873   40.0721 H   0  0  0  0  0  0
    4.5246   12.1136   46.0377 H   0  0  0  0  0  0
    2.9685   13.0104   46.0698 H   0  0  0  0  0  0
    4.5068   13.8679   46.4237 H   0  0  0  0  0  0
    5.2478   11.2217   44.9618 H   0  0  0  0  0  0
  1 10  2  0  0  0
  1 11  1  0  0  0
  1 15  1  0  0  0
  2  3  1  0  0  0
  2  9  1  0  0  0
  2 12  1  0  0  0
  2 16  1  0  0  0
  3 12  1  0  0  0
  3 17  1  0  0  0
  3 18  1  0  0  0
  4  5  1  0  0  0
  4 19  1  0  0  0
  4 20  1  0  0  0
  4 21  1  0  0  0
  5  6  1  0  0  0
  5 22  1  0  0  0
  5 23  1  0  0  0
  6 15  1  0  0  0
  6 24  1  0  0  0
  6 25  1  0  0  0
  7  8  1  0  0  0
  7 11  2  0  0  0
  7 14  1  0  0  0
  8  9  2  0  0  0
  9 10  1  0  0  0
 11 13  1  0  0  0
 12 26  1  0  0  0
 12 27  1  0  0  0
 13 28  1  0  0  0
 13 29  1  0  0  0
 13 30  1  0  0  0
 15 31  1  0  0  0
M  END
> <s_m_source_file>
../5c29_ligand.sdf

> <i_m_source_file_index>
1

> <s_epik_input>
W0NIM11bQ0gyXVtDSDJdW05IXWMxbmMoW0NIXTJbQ0gyXVtDSDJdMiluYyhDbCljMVtDSDNd

> <s_epik_cmdline>
J2VwaWtfYXBwJywgJy1pbWFlJywgJ2xpZ2FuZF9wcm8ubWFlJywgJy1vbWFlJywgJ2xpZ2FuZF9wcmVwLm1hZScsICctbXMnLCAnMScsICctcGgnLCAnNycsICctcGh0JywgJzAuNScsICctbnQn

> <r_lp_tautomer_probability>
1

> <r_epik_Ionization_Penalty>
  0.0001

> <r_epik_Ionization_Penalty_Charging>
  0.0000

> <r_epik_Ionization_Penalty_Neutral>
  0.0001

> <r_epik_State_Penalty>
 -0.0000

> <r_epik_Charging_Adjusted_Penalty>
0

> <i_epik_Tot_Q>
0

> <i_epik_Tot_abs_Q>
0

$$$$
