5c2e_ligand
                    3D
 Schrodinger Suite 2020-3.
 46 48  0  0  1  0            999 V2000
   -9.0610   -2.4360   18.3300 C   0  0  0  0  0  0
   -9.1310   -2.7960   15.8360 C   0  0  0  0  0  0
  -10.2340   -1.6610   18.1960 N   0  0  0  0  0  0
  -10.6270   -0.9470   19.4020 C   0  0  0  0  0  0
   -8.2280    2.0300   20.1150 C   0  0  0  0  0  0
  -10.0570    1.0870   20.9030 C   0  0  0  0  0  0
   -7.0950    2.9620   19.9720 C   0  0  0  0  0  0
  -11.1530    1.0220   21.8810 C   0  0  0  0  0  0
   -5.2870   -4.4560   22.3240 C   0  0  0  0  0  0
   -5.9600   -6.4270   23.5320 N   0  0  0  0  0  0
   -6.8320   -7.0600   24.3300 C   0  0  0  0  0  0
   -8.2670   -5.1890   24.4950 C   0  0  0  0  0  0
   -7.3900   -4.5080   23.6770 C   0  0  0  0  0  0
   -7.3580   -3.7220   17.3500 C   0  0  0  0  0  0
   -6.7490   -3.9290   18.5210 N   0  0  0  0  0  0
   -6.8380   -3.4760   20.8380 O   0  0  0  0  0  0
   -8.4300    0.7450   18.9980 S   0  0  0  0  0  0
   -6.5520   -4.4640   16.0200 Cl  0  0  0  0  0  0
   -7.3620   -3.3560   19.5630 C   0  0  0  0  0  0
   -8.4790   -2.6230   19.5260 N   0  0  0  0  0  0
   -8.5140   -2.9870   17.1850 C   0  0  0  0  0  0
   -9.8420    0.2380   19.8350 C   0  0  0  0  0  0
   -9.1450    2.0980   21.0530 N   0  0  0  0  0  0
   -5.7790   -4.4260   20.8930 C   0  0  0  0  0  0
   -6.2590   -5.1590   23.2170 C   0  0  0  0  0  0
   -7.9850   -6.4960   24.8330 C   0  0  0  0  0  0
  -10.0391   -2.1827   15.9317 H   0  0  0  0  0  0
   -9.3935   -3.7760   15.4108 H   0  0  0  0  0  0
   -8.4142   -2.2889   15.1734 H   0  0  0  0  0  0
  -10.8378   -1.5693   17.2811 H   0  0  0  0  0  0
  -11.6525   -0.5665   19.2851 H   0  0  0  0  0  0
  -10.5855   -1.6306   20.2628 H   0  0  0  0  0  0
   -6.4872    2.6697   19.1030 H   0  0  0  0  0  0
   -6.4758    2.9285   20.8805 H   0  0  0  0  0  0
   -7.4766    3.9833   19.8257 H   0  0  0  0  0  0
  -11.8060    0.1692   21.6437 H   0  0  0  0  0  0
  -11.7368    1.9534   21.8399 H   0  0  0  0  0  0
  -10.7361    0.8948   22.8910 H   0  0  0  0  0  0
   -4.3236   -4.9850   22.3695 H   0  0  0  0  0  0
   -5.1575   -3.4264   22.6889 H   0  0  0  0  0  0
   -6.6139   -8.0933   24.6000 H   0  0  0  0  0  0
   -9.1681   -4.7023   24.8682 H   0  0  0  0  0  0
   -7.5848   -3.4727   23.3971 H   0  0  0  0  0  0
   -4.9547   -4.1288   20.2280 H   0  0  0  0  0  0
   -6.1380   -5.4259   20.6076 H   0  0  0  0  0  0
   -8.6535   -7.0658   25.4783 H   0  0  0  0  0  0
  1  3  1  0  0  0
  1 20  2  0  0  0
  1 21  1  0  0  0
  2 21  1  0  0  0
  2 27  1  0  0  0
  2 28  1  0  0  0
  2 29  1  0  0  0
  3  4  1  0  0  0
  3 30  1  0  0  0
  4 22  1  0  0  0
  4 31  1  0  0  0
  4 32  1  0  0  0
  5  7  1  0  0  0
  5 17  1  0  0  0
  5 23  2  0  0  0
  6  8  1  0  0  0
  6 22  2  0  0  0
  6 23  1  0  0  0
  7 33  1  0  0  0
  7 34  1  0  0  0
  7 35  1  0  0  0
  8 36  1  0  0  0
  8 37  1  0  0  0
  8 38  1  0  0  0
  9 24  1  0  0  0
  9 25  1  0  0  0
  9 39  1  0  0  0
  9 40  1  0  0  0
 10 11  2  0  0  0
 10 25  1  0  0  0
 11 26  1  0  0  0
 11 41  1  0  0  0
 12 13  1  0  0  0
 12 26  2  0  0  0
 12 42  1  0  0  0
 13 25  2  0  0  0
 13 43  1  0  0  0
 14 15  1  0  0  0
 14 18  1  0  0  0
 14 21  2  0  0  0
 15 19  2  0  0  0
 16 19  1  0  0  0
 16 24  1  0  0  0
 17 22  1  0  0  0
 19 20  1  0  0  0
 24 44  1  0  0  0
 24 45  1  0  0  0
 26 46  1  0  0  0
M  END
> <s_m_source_file>
../5c2e_ligand.sdf

> <i_m_source_file_index>
1

> <s_epik_input>
W0NIM11jMXNjKGMobjEpW0NIM10pW0NIMl1bTkhdYzJuYyhuYyhDbCljMltDSDNdKU9bQ0gyXVtDSDJdYzNuW2NIXVtjSF1bY0hdW2NIXTM=

> <s_epik_cmdline>
J2VwaWtfYXBwJywgJy1pbWFlJywgJ2xpZ2FuZF9wcm8ubWFlJywgJy1vbWFlJywgJ2xpZ2FuZF9wcmVwLm1hZScsICctbXMnLCAnMScsICctcGgnLCAnNycsICctcGh0JywgJzAuNScsICctbnQn

> <r_lp_tautomer_probability>
0.99999999732158

> <r_epik_Ionization_Penalty>
  0.0295

> <r_epik_Ionization_Penalty_Charging>
  0.0000

> <r_epik_Ionization_Penalty_Neutral>
  0.0295

> <r_epik_State_Penalty>
  0.0221

> <r_epik_Charging_Adjusted_Penalty>
0.0220526331316021

> <i_epik_Tot_Q>
0

> <i_epik_Tot_abs_Q>
0

$$$$
