5c3k_ligand
                    3D
 Schrodinger Suite 2020-3.
 26 26  0  0  1  0            999 V2000
  -15.6040  -21.4700   -0.8850 C   0  0  0  0  0  0
  -15.8300  -19.9660   -0.9770 C   0  0  2  0  0  0
  -16.8570  -19.5420    0.0200 N   0  3  0  0  0  0
  -16.2780  -19.5540   -2.3780 C   0  0  0  0  0  0
  -17.4550  -19.2800   -2.6110 O   0  0  0  0  0  0
  -15.3820  -19.3640   -4.7030 C   0  0  0  0  0  0
  -16.5520  -19.1370   -5.4250 C   0  0  0  0  0  0
  -16.4720  -19.0060   -6.7920 C   0  0  0  0  0  0
  -15.2450  -19.1020   -7.4140 C   0  0  0  0  0  0
  -14.0830  -19.3340   -6.6380 C   0  0  0  0  0  0
  -15.2990  -19.5200   -3.3100 N   0  0  0  0  0  0
  -12.8760  -19.4350   -7.1840 N   0  0  0  0  0  0
  -14.1810  -19.4610   -5.2850 N   0  0  0  0  0  0
  -15.2832  -21.7309    0.1343 H   0  0  0  0  0  0
  -14.8251  -21.7683   -1.6022 H   0  0  0  0  0  0
  -16.5405  -21.9966   -1.1208 H   0  0  0  0  0  0
  -14.8827  -19.4594   -0.7404 H   0  0  0  0  0  0
  -16.5335  -19.8391    1.0285 H   0  0  0  0  0  0
  -17.8170  -20.0252   -0.2144 H   0  0  0  0  0  0
  -16.9772  -18.4493   -0.0195 H   0  0  0  0  0  0
  -17.5131  -19.0646   -4.9159 H   0  0  0  0  0  0
  -17.3725  -18.8275   -7.3797 H   0  0  0  0  0  0
  -15.1698  -18.9999   -8.4966 H   0  0  0  0  0  0
  -14.2469  -19.6243   -3.0065 H   0  0  0  0  0  0
  -12.7551  -19.3382   -8.2731 H   0  0  0  0  0  0
  -11.9975  -19.6154   -6.5470 H   0  0  0  0  0  0
  1  2  1  0  0  0
  1 14  1  0  0  0
  1 15  1  0  0  0
  1 16  1  0  0  0
  2  3  1  0  0  0
  2  4  1  0  0  0
  2 17  1  0  0  0
  3 18  1  0  0  0
  3 19  1  0  0  0
  3 20  1  0  0  0
  4  5  2  0  0  0
  4 11  1  0  0  0
  6  7  2  0  0  0
  6 11  1  0  0  0
  6 13  1  0  0  0
  7  8  1  0  0  0
  7 21  1  0  0  0
  8  9  2  0  0  0
  8 22  1  0  0  0
  9 10  1  0  0  0
  9 23  1  0  0  0
 10 12  1  0  0  0
 10 13  2  0  0  0
 11 24  1  0  0  0
 12 25  1  0  0  0
 12 26  1  0  0  0
M  CHG  1   3   1
M  END
> <s_m_source_file>
../5c3k_ligand.sdf

> <i_m_source_file_index>
1

> <s_epik_input>
W0NIM11bQ0BIXShbTkgzK10pQyg9TylbTkhdYzFbY0hdW2NIXVtjSF1jKG4xKVtOSDJd

> <s_epik_cmdline>
J2VwaWtfYXBwJywgJy1pbWFlJywgJ2xpZ2FuZF9wcm8ubWFlJywgJy1vbWFlJywgJ2xpZ2FuZF9wcmVwLm1hZScsICctbXMnLCAnMScsICctcGgnLCAnNycsICctcGh0JywgJzAuNScsICctbnQn

> <r_lp_tautomer_probability>
0.999999772200052

> <r_epik_Ionization_Penalty>
  0.1543

> <r_epik_Ionization_Penalty_Charging>
  0.1538

> <r_epik_Ionization_Penalty_Neutral>
  0.0006

> <r_epik_State_Penalty>
  0.1431

> <r_epik_Charging_Adjusted_Penalty>
0.296822002794315

> <i_epik_Tot_Q>
1

> <i_epik_Tot_abs_Q>
1

$$$$
