5c3p_ligand
                    3D
 Schrodinger Suite 2020-3.
 14 13  0  0  1  0            999 V2000
   19.1520   18.6540   94.3030 C   0  0  0  0  0  0
   18.4440   18.0420   93.4730 O   0  0  0  0  0  0
   19.8560   18.0360   95.1380 O   0  5  0  0  0  0
   19.1540   20.1270   94.2700 C   0  0  0  0  0  0
   18.6620   20.7240   93.3130 O   0  0  0  0  0  0
   19.7680   20.8950   95.4230 C   0  0  0  0  0  0
   19.3540   22.3630   95.4090 C   0  0  0  0  0  0
   19.8110   23.1100   96.6410 C   0  0  0  0  0  0
   19.2830   24.2180   96.8690 O   0  0  0  0  0  0
   20.7110   22.6390   97.3710 O   0  5  0  0  0  0
   19.4393   20.4523   96.3748 H   0  0  0  0  0  0
   20.8647   20.8445   95.3545 H   0  0  0  0  0  0
   19.7938   22.8596   94.5315 H   0  0  0  0  0  0
   18.2574   22.4343   95.3593 H   0  0  0  0  0  0
  1  2  2  0  0  0
  1  3  1  0  0  0
  1  4  1  0  0  0
  4  5  2  0  0  0
  4  6  1  0  0  0
  6  7  1  0  0  0
  6 11  1  0  0  0
  6 12  1  0  0  0
  7  8  1  0  0  0
  7 13  1  0  0  0
  7 14  1  0  0  0
  8  9  2  0  0  0
  8 10  1  0  0  0
M  CHG  2   3  -1  10  -1
M  END
> <s_m_source_file>
../5c3p_ligand.sdf

> <i_m_source_file_index>
1

> <s_epik_input>
Tz1DKFtPSF0pQyg9TylbQ0gyXVtDSDJdQyg9TylbT0hd

> <s_epik_cmdline>
J2VwaWtfYXBwJywgJy1pbWFlJywgJ2xpZ2FuZF9wcm8ubWFlJywgJy1vbWFlJywgJ2xpZ2FuZF9wcmVwLm1hZScsICctbXMnLCAnMScsICctcGgnLCAnNycsICctcGh0JywgJzAuNScsICctbnQn

> <r_lp_tautomer_probability>
1

> <r_epik_Ionization_Penalty>
  0.0013

> <r_epik_Ionization_Penalty_Charging>
  0.0013

> <r_epik_Ionization_Penalty_Neutral>
  0.0000

> <r_epik_State_Penalty>
 -0.0000

> <r_epik_Charging_Adjusted_Penalty>
0.00129329390835398

> <i_epik_Tot_Q>
-2

> <i_epik_Tot_abs_Q>
2

$$$$
