5c4o_ligand
                    3D
 Schrodinger Suite 2020-3.
 42 45  0  0  1  0            999 V2000
  -37.9130   23.3410   30.7200 N   0  0  0  0  0  0
  -35.3970   27.1850   34.4860 C   0  0  0  0  0  0
  -36.2430   26.6220   33.5430 C   0  0  0  0  0  0
  -35.9670   25.3690   32.9980 C   0  0  0  0  0  0
  -36.8230   24.8110   31.9120 C   0  0  0  0  0  0
  -38.3780   22.0560   30.4040 C   0  0  0  0  0  0
  -36.7000   20.3610   31.1960 C   0  0  0  0  0  0
  -38.5440   19.1560   32.8710 C   0  0  0  0  0  0
  -40.3360   20.7800   32.2440 C   0  0  0  0  0  0
  -38.7460   24.8580   28.8410 C   0  0  0  0  0  0
  -37.3960   26.8370   30.3020 C   0  0  0  0  0  0
  -37.3970   25.5160   30.7600 C   0  0  0  0  0  0
  -39.0390   21.8500   29.4020 O   0  0  0  0  0  0
  -37.9860   20.8910   31.2800 C   0  0  0  0  0  0
  -38.9210   20.2820   32.1430 C   0  0  0  0  0  0
  -40.9340   20.4240   33.3600 F   0  0  0  0  0  0
  -41.0780   20.3510   31.2340 F   0  0  0  0  0  0
  -40.4160   22.1130   32.2710 F   0  0  0  0  0  0
  -37.2630   18.6330   32.7530 C   0  0  0  0  0  0
  -36.3340   19.2330   31.9170 C   0  0  0  0  0  0
  -35.5200   21.1380   30.1960 Cl  0  0  0  0  0  0
  -37.1390   23.5260   31.8780 N   0  0  0  0  0  0
  -38.0810   24.5370   30.0240 C   0  0  0  0  0  0
  -38.0600   27.1570   29.1260 C   0  0  0  0  0  0
  -38.7300   26.1750   28.4000 C   0  0  0  0  0  0
  -34.8320   24.6810   33.4390 C   0  0  0  0  0  0
  -33.9860   25.2420   34.3820 C   0  0  0  0  0  0
  -34.2520   26.5070   34.9150 C   0  0  0  0  0  0
  -33.3480   27.1290   35.9580 C   0  0  0  0  0  0
  -33.6950   28.2380   36.4400 O   0  0  0  0  0  0
  -32.2900   26.5210   36.2770 O   0  5  0  0  0  0
  -35.6272   28.1676   34.8978 H   0  0  0  0  0  0
  -37.1331   27.1646   33.2245 H   0  0  0  0  0  0
  -39.2615   18.6807   33.5399 H   0  0  0  0  0  0
  -39.2691   24.0890   28.2725 H   0  0  0  0  0  0
  -36.8763   27.6117   30.8657 H   0  0  0  0  0  0
  -36.9862   17.7450   33.3213 H   0  0  0  0  0  0
  -35.3278   18.8236   31.8270 H   0  0  0  0  0  0
  -38.0572   28.1863   28.7672 H   0  0  0  0  0  0
  -39.2461   26.4424   27.4779 H   0  0  0  0  0  0
  -34.6105   23.6926   33.0364 H   0  0  0  0  0  0
  -33.1046   24.6919   34.7115 H   0  0  0  0  0  0
  1  6  1  0  0  0
  1 22  1  0  0  0
  1 23  1  0  0  0
  2  3  2  0  0  0
  2 28  1  0  0  0
  2 32  1  0  0  0
  3  4  1  0  0  0
  3 33  1  0  0  0
  4  5  1  0  0  0
  4 26  2  0  0  0
  5 12  1  0  0  0
  5 22  2  0  0  0
  6 13  2  0  0  0
  6 14  1  0  0  0
  7 14  2  0  0  0
  7 20  1  0  0  0
  7 21  1  0  0  0
  8 15  2  0  0  0
  8 19  1  0  0  0
  8 34  1  0  0  0
  9 15  1  0  0  0
  9 16  1  0  0  0
  9 17  1  0  0  0
  9 18  1  0  0  0
 10 23  2  0  0  0
 10 25  1  0  0  0
 10 35  1  0  0  0
 11 12  2  0  0  0
 11 24  1  0  0  0
 11 36  1  0  0  0
 12 23  1  0  0  0
 14 15  1  0  0  0
 19 20  2  0  0  0
 19 37  1  0  0  0
 20 38  1  0  0  0
 24 25  2  0  0  0
 24 39  1  0  0  0
 25 40  1  0  0  0
 26 27  1  0  0  0
 26 41  1  0  0  0
 27 28  2  0  0  0
 27 42  1  0  0  0
 28 29  1  0  0  0
 29 30  2  0  0  0
 29 31  1  0  0  0
M  CHG  1  31  -1
M  END
> <s_m_source_file>
../5c4o_ligand.sdf

> <i_m_source_file_index>
1

> <s_epik_input>
W2NIXTFbY0hdW2NIXWMoQyhGKShGKUYpYyhjMUNsKUMoPU8pbihjKGMyMylbY0hdW2NIXVtjSF1bY0hdMyluYzItYzRbY0hdW2NIXWMoW2NIXVtjSF00KUMoPU8pW09IXQ==

> <s_epik_cmdline>
J2VwaWtfYXBwJywgJy1pbWFlJywgJ2xpZ2FuZF9wcm8ubWFlJywgJy1vbWFlJywgJ2xpZ2FuZF9wcmVwLm1hZScsICctbXMnLCAnMScsICctcGgnLCAnNycsICctcGh0JywgJzAuNScsICctbnQn

> <r_lp_tautomer_probability>
1

> <r_epik_Ionization_Penalty>
  0.0008

> <r_epik_Ionization_Penalty_Charging>
  0.0008

> <r_epik_Ionization_Penalty_Neutral>
  0.0000

> <r_epik_State_Penalty>
 -0.0000

> <r_epik_Charging_Adjusted_Penalty>
0.000762778304785084

> <i_epik_Tot_Q>
-1

> <i_epik_Tot_abs_Q>
1

$$$$
