5c5h_ligand
                    3D
 Schrodinger Suite 2020-3.
 58 61  0  0  1  0            999 V2000
   98.1610  -23.5510  -16.8210 C   0  0  0  0  0  0
   97.2350  -23.8830  -17.7220 C   0  0  0  0  0  0
   96.0030  -24.2160  -17.3210 C   0  0  0  0  0  0
   99.0790  -23.4400  -18.7620 C   0  0  0  0  0  0
   95.6410  -24.2230  -16.0280 N   0  0  0  0  0  0
   97.8780  -23.5380  -15.5150 N   0  0  0  0  0  0
   97.7930  -22.7310  -28.0100 O   0  0  0  0  0  0
   97.7480  -22.7710  -26.7590 C   0  0  0  0  0  0
   97.9030  -23.8630  -26.1640 O   0  5  0  0  0  0
   97.4500  -21.6030  -26.0440 C   0  0  0  0  0  0
   96.2030  -21.0380  -26.3110 C   0  0  0  0  0  0
   95.7950  -19.8690  -25.6660 C   0  0  0  0  0  0
   96.6280  -19.2590  -24.7410 C   0  0  0  0  0  0
   97.8690  -19.8200  -24.4600 C   0  0  0  0  0  0
   98.3010  -21.0000  -25.0940 C   0  0  0  0  0  0
   99.5690  -21.5230  -24.7950 C   0  0  0  0  0  0
  100.2640  -22.0390  -25.6750 O   0  0  0  0  0  0
  100.1020  -21.3660  -23.3500 C   0  0  0  0  0  0
  101.5600  -21.8020  -23.2680 C   0  0  0  0  0  0
  102.2240  -21.3720  -21.9400 C   0  0  0  0  0  0
  101.6330  -20.7550  -21.0610 O   0  5  0  0  0  0
  103.4850  -21.7760  -21.8260 N   0  0  0  0  0  0
  104.3240  -21.3210  -20.5560 S   0  0  0  0  0  0
  104.4910  -19.8160  -20.6940 O   0  0  0  0  0  0
  105.6790  -21.9790  -20.6340 O   0  0  0  0  0  0
  103.6740  -21.6470  -19.2090 O   0  0  0  0  0  0
  103.1880  -22.9490  -19.0370 C   0  0  0  0  0  0
  102.6190  -22.9640  -17.6400 C   0  0  1  0  0  0
  101.3960  -22.2150  -17.6640 O   0  0  0  0  0  0
  102.1800  -24.3540  -17.3080 C   0  0  1  0  0  0
  103.3010  -25.0930  -16.8630 O   0  0  0  0  0  0
  101.1980  -24.0780  -16.1840 C   0  0  1  0  0  0
  101.8970  -23.7060  -15.0120 O   0  0  0  0  0  0
  100.4800  -22.8740  -16.7320 C   0  0  2  0  0  0
   99.2870  -23.2840  -17.4620 N   0  0  0  0  0  0
   97.8050  -23.8160  -18.9290 N   0  0  0  0  0  0
   96.6010  -23.8710  -15.0700 C   0  0  0  0  0  0
   95.1290  -24.5340  -18.2580 N   0  0  0  0  0  0
   99.8136  -23.2892  -19.5531 H   0  0  0  0  0  0
   95.5390  -21.5149  -27.0320 H   0  0  0  0  0  0
   94.8203  -19.4355  -25.8900 H   0  0  0  0  0  0
   96.3123  -18.3455  -24.2371 H   0  0  0  0  0  0
   98.5211  -19.3356  -23.7332 H   0  0  0  0  0  0
  100.0267  -20.3121  -23.0439 H   0  0  0  0  0  0
   99.5040  -21.9893  -22.6689 H   0  0  0  0  0  0
  101.6196  -22.8980  -23.3407 H   0  0  0  0  0  0
  102.1255  -21.3484  -24.0953 H   0  0  0  0  0  0
  102.4173  -23.1557  -19.7942 H   0  0  0  0  0  0
  104.0141  -23.6666  -19.1493 H   0  0  0  0  0  0
  103.3411  -22.5504  -16.9206 H   0  0  0  0  0  0
  101.7947  -24.9719  -18.1325 H   0  0  0  0  0  0
  104.0965  -25.3660  -17.5720 H   0  0  0  0  0  0
  100.5724  -24.9225  -15.8592 H   0  0  0  0  0  0
  102.4868  -24.4544  -14.4624 H   0  0  0  0  0  0
  100.1634  -22.1884  -15.9322 H   0  0  0  0  0  0
   96.3557  -23.8582  -14.0080 H   0  0  0  0  0  0
   95.4299  -24.5269  -19.3160 H   0  0  0  0  0  0
   94.0999  -24.8060  -17.9807 H   0  0  0  0  0  0
  1  2  2  0  0  0
  1  6  1  0  0  0
  1 35  1  0  0  0
  2  3  1  0  0  0
  2 36  1  0  0  0
  3  5  2  0  0  0
  3 38  1  0  0  0
  4 35  1  0  0  0
  4 36  2  0  0  0
  4 39  1  0  0  0
  5 37  1  0  0  0
  6 37  2  0  0  0
  7  8  2  0  0  0
  8  9  1  0  0  0
  8 10  1  0  0  0
 10 11  2  0  0  0
 10 15  1  0  0  0
 11 12  1  0  0  0
 11 40  1  0  0  0
 12 13  2  0  0  0
 12 41  1  0  0  0
 13 14  1  0  0  0
 13 42  1  0  0  0
 14 15  2  0  0  0
 14 43  1  0  0  0
 15 16  1  0  0  0
 16 17  2  0  0  0
 16 18  1  0  0  0
 18 19  1  0  0  0
 18 44  1  0  0  0
 18 45  1  0  0  0
 19 20  1  0  0  0
 19 46  1  0  0  0
 19 47  1  0  0  0
 20 21  1  0  0  0
 20 22  2  0  0  0
 22 23  1  0  0  0
 23 24  2  0  0  0
 23 25  2  0  0  0
 23 26  1  0  0  0
 26 27  1  0  0  0
 27 28  1  0  0  0
 27 48  1  0  0  0
 27 49  1  0  0  0
 28 29  1  0  0  0
 28 30  1  0  0  0
 28 50  1  0  0  0
 29 34  1  0  0  0
 30 31  1  0  0  0
 30 32  1  0  0  0
 30 51  1  0  0  0
 31 52  1  0  0  0
 32 33  1  0  0  0
 32 34  1  0  0  0
 32 53  1  0  0  0
 33 54  1  0  0  0
 34 35  1  0  0  0
 34 55  1  0  0  0
 37 56  1  0  0  0
 38 57  1  0  0  0
 38 58  1  0  0  0
M  CHG  2   9  -1  21  -1
M  END
> <s_m_source_file>
../5c5h_ligand.sdf

> <i_m_source_file_index>
1

> <s_epik_input>
bjFbY0hdbmMoW05IMl0pYyhjMTIpbltjSF1uMltDQEBIXShbQ0BIXShbT0hdKVtDQEBIXTNbT0hdKU9bQ0BASF0zW0NIMl1PUyg9TykoPU8pW05IXUMoPU8pW0NIMl1bQ0gyXUMoPU8pYzRbY0hdW2NIXVtjSF1bY0hdYzRDKD1PKVtPSF0=

> <s_epik_cmdline>
J2VwaWtfYXBwJywgJy1pbWFlJywgJ2xpZ2FuZF9wcm8ubWFlJywgJy1vbWFlJywgJ2xpZ2FuZF9wcmVwLm1hZScsICctbXMnLCAnMScsICctcGgnLCAnNycsICctcGh0JywgJzAuNScsICctbnQn

> <r_lp_tautomer_probability>
1

> <r_epik_Ionization_Penalty>
  0.0009

> <r_epik_Ionization_Penalty_Charging>
  0.0005

> <r_epik_Ionization_Penalty_Neutral>
  0.0004

> <r_epik_State_Penalty>
 -0.0000

> <r_epik_Charging_Adjusted_Penalty>
0.000459439817934217

> <i_epik_Tot_Q>
-2

> <i_epik_Tot_abs_Q>
2

> <s_epik_Chemistry_Notes>
This compound contains an acetal/aminal-like group ( X-CH(R)-Y where X, Y are N, S, or O) that may be acid/base labile, releasing an aldehyde.

$$$$
