5c6o_ligand
                    3D
 Schrodinger Suite 2020-3.
 72 73  0  0  1  0            999 V2000
    9.6390  -19.9580  -26.0830 C   0  0  0  0  0  0
    8.9160  -19.5430  -24.8560 O   0  0  0  0  0  0
    9.4530  -18.4160  -24.2960 C   0  0  0  0  0  0
    9.1510  -17.1400  -24.7870 C   0  0  0  0  0  0
   10.3090  -18.5670  -23.1960 C   0  0  0  0  0  0
   10.6110  -19.8240  -22.7210 O   0  0  0  0  0  0
    9.3780  -20.6540  -22.1390 C   0  0  0  0  0  0
   10.8700  -17.4300  -22.6140 C   0  0  0  0  0  0
   10.5550  -16.1640  -23.1240 C   0  0  0  0  0  0
    9.6970  -15.9770  -24.2230 C   0  0  0  0  0  0
    9.3410  -14.6940  -24.7770 C   0  0  2  0  0  0
    8.6510  -13.7570  -23.7120 C   0  0  0  0  0  0
    8.4390  -12.3000  -24.1760 C   0  0  0  0  0  0
    9.3190  -13.8000  -22.3190 C   0  0  0  0  0  0
    8.3150  -14.9820  -25.7660 C   0  0  0  0  0  0
    7.4550  -15.1940  -26.5720 N   0  0  0  0  0  0
   10.5040  -14.1130  -25.6570 C   0  0  0  0  0  0
   11.2760  -12.8710  -25.1580 C   0  0  0  0  0  0
   11.0430  -11.6570  -26.0720 C   0  0  0  0  0  0
   11.9330  -11.5480  -27.2480 N   0  3  1  0  0  0
   13.0270  -12.5390  -27.3040 C   0  0  0  0  0  0
   11.0930  -11.5950  -28.4560 C   0  0  0  0  0  0
   10.4910  -10.2150  -28.7860 C   0  0  0  0  0  0
    9.1260  -10.2980  -29.0170 C   0  0  0  0  0  0
    8.6370  -10.9280  -30.1680 C   0  0  0  0  0  0
    8.2570   -9.7330  -28.0860 C   0  0  0  0  0  0
    6.8880   -9.8050  -28.3060 C   0  0  0  0  0  0
    6.3930  -10.4370  -29.4490 C   0  0  0  0  0  0
    5.0520  -10.5120  -29.6510 O   0  0  0  0  0  0
    4.4160  -11.0040  -28.4530 C   0  0  0  0  0  0
    7.2620  -11.0070  -30.3970 C   0  0  0  0  0  0
    6.7290  -11.6210  -31.5100 O   0  0  0  0  0  0
    7.6300  -11.7370  -32.6480 C   0  0  0  0  0  0
    9.1719  -20.8648  -26.4948 H   0  0  0  0  0  0
   10.6904  -20.1669  -25.8361 H   0  0  0  0  0  0
    9.5908  -19.1501  -26.8279 H   0  0  0  0  0  0
    8.4707  -17.0472  -25.6336 H   0  0  0  0  0  0
    9.7294  -21.6360  -21.7895 H   0  0  0  0  0  0
    8.6248  -20.7937  -22.9284 H   0  0  0  0  0  0
    8.9302  -20.1042  -21.2980 H   0  0  0  0  0  0
   11.5496  -17.5262  -21.7672 H   0  0  0  0  0  0
   10.9934  -15.2863  -22.6491 H   0  0  0  0  0  0
    7.6415  -14.1772  -23.5922 H   0  0  0  0  0  0
    7.9632  -12.2966  -25.1678 H   0  0  0  0  0  0
    9.4111  -11.7885  -24.2339 H   0  0  0  0  0  0
    7.7916  -11.7767  -23.4569 H   0  0  0  0  0  0
    9.4589  -14.8469  -22.0116 H   0  0  0  0  0  0
    8.6770  -13.2860  -21.5885 H   0  0  0  0  0  0
   10.2965  -13.2978  -22.3655 H   0  0  0  0  0  0
   11.2791  -14.8814  -25.7940 H   0  0  0  0  0  0
   10.1070  -13.8136  -26.6382 H   0  0  0  0  0  0
   10.9383  -12.6125  -24.1436 H   0  0  0  0  0  0
   12.3535  -13.0915  -25.1406 H   0  0  0  0  0  0
   10.0173  -11.6879  -26.4682 H   0  0  0  0  0  0
   11.1856  -10.7312  -25.4954 H   0  0  0  0  0  0
   12.4652  -10.5882  -27.1744 H   0  0  0  0  0  0
   13.6296  -12.4722  -26.3862 H   0  0  0  0  0  0
   13.6641  -12.3329  -28.1767 H   0  0  0  0  0  0
   12.6020  -13.5498  -27.3908 H   0  0  0  0  0  0
   11.7008  -11.9213  -29.3128 H   0  0  0  0  0  0
   10.2671  -12.3048  -28.3009 H   0  0  0  0  0  0
   10.6602   -9.5299  -27.9422 H   0  0  0  0  0  0
   10.9729   -9.8111  -29.6886 H   0  0  0  0  0  0
    9.3327  -11.3585  -30.8882 H   0  0  0  0  0  0
    8.6473   -9.2403  -27.1955 H   0  0  0  0  0  0
    6.1978   -9.3672  -27.5849 H   0  0  0  0  0  0
    3.3295  -11.0658  -28.6136 H   0  0  0  0  0  0
    4.6249  -10.3181  -27.6188 H   0  0  0  0  0  0
    4.8087  -12.0032  -28.2133 H   0  0  0  0  0  0
    7.1100  -12.2381  -33.4777 H   0  0  0  0  0  0
    8.5122  -12.3268  -32.3585 H   0  0  0  0  0  0
    7.9484  -10.7337  -32.9674 H   0  0  0  0  0  0
  1  2  1  0  0  0
  1 34  1  0  0  0
  1 35  1  0  0  0
  1 36  1  0  0  0
  2  3  1  0  0  0
  3  4  2  0  0  0
  3  5  1  0  0  0
  4 10  1  0  0  0
  4 37  1  0  0  0
  5  6  1  0  0  0
  5  8  2  0  0  0
  6  7  1  0  0  0
  7 38  1  0  0  0
  7 39  1  0  0  0
  7 40  1  0  0  0
  8  9  1  0  0  0
  8 41  1  0  0  0
  9 10  2  0  0  0
  9 42  1  0  0  0
 10 11  1  0  0  0
 11 12  1  0  0  0
 11 15  1  0  0  0
 11 17  1  0  0  0
 12 13  1  0  0  0
 12 14  1  0  0  0
 12 43  1  0  0  0
 13 44  1  0  0  0
 13 45  1  0  0  0
 13 46  1  0  0  0
 14 47  1  0  0  0
 14 48  1  0  0  0
 14 49  1  0  0  0
 15 16  3  0  0  0
 17 18  1  0  0  0
 17 50  1  0  0  0
 17 51  1  0  0  0
 18 19  1  0  0  0
 18 52  1  0  0  0
 18 53  1  0  0  0
 19 20  1  0  0  0
 19 54  1  0  0  0
 19 55  1  0  0  0
 20 21  1  0  0  0
 20 22  1  0  0  0
 20 56  1  0  0  0
 21 57  1  0  0  0
 21 58  1  0  0  0
 21 59  1  0  0  0
 22 23  1  0  0  0
 22 60  1  0  0  0
 22 61  1  0  0  0
 23 24  1  0  0  0
 23 62  1  0  0  0
 23 63  1  0  0  0
 24 25  2  0  0  0
 24 26  1  0  0  0
 25 31  1  0  0  0
 25 64  1  0  0  0
 26 27  2  0  0  0
 26 65  1  0  0  0
 27 28  1  0  0  0
 27 66  1  0  0  0
 28 29  1  0  0  0
 28 31  2  0  0  0
 29 30  1  0  0  0
 30 67  1  0  0  0
 30 68  1  0  0  0
 30 69  1  0  0  0
 31 32  1  0  0  0
 32 33  1  0  0  0
 33 70  1  0  0  0
 33 71  1  0  0  0
 33 72  1  0  0  0
M  CHG  1  20   1
M  END
> <s_m_source_file>
../5c6o_ligand.sdf

> <i_m_source_file_index>
1

> <s_epik_input>
W0NIM11PYzFbY0hdW2NIXWMoW2NIXWMxT1tDSDNdKVtDQEBdKEMjTikoW0NIXShbQ0gzXSlbQ0gzXSlbQ0gyXVtDSDJdW0NIMl1bTkBASCtdKFtDSDNdKVtDSDJdW0NIMl1jMltjSF1jKE9bQ0gzXSljKFtjSF1bY0hdMilPW0NIM10=

> <s_epik_cmdline>
J2VwaWtfYXBwJywgJy1pbWFlJywgJ2xpZ2FuZF9wcm8ubWFlJywgJy1vbWFlJywgJ2xpZ2FuZF9wcmVwLm1hZScsICctbXMnLCAnMScsICctcGgnLCAnNycsICctcGh0JywgJzAuNScsICctbnQn

> <r_lp_tautomer_probability>
1

> <r_epik_Ionization_Penalty>
  0.0069

> <r_epik_Ionization_Penalty_Charging>
  0.0069

> <r_epik_Ionization_Penalty_Neutral>
  0.0000

> <r_epik_State_Penalty>
 -0.0000

> <r_epik_Charging_Adjusted_Penalty>
0.00685717919796007

> <i_epik_Tot_Q>
1

> <i_epik_Tot_abs_Q>
1

$$$$
