5c6p_ligand
                    3D
 Schrodinger Suite 2020-3.
 72 73  0  0  1  0            999 V2000
   23.2190  -49.0180   34.9930 C   0  0  0  0  0  0
   24.4020  -48.6950   34.2440 O   0  0  0  0  0  0
   24.2500  -47.5700   33.4790 C   0  0  0  0  0  0
   24.4830  -46.2900   33.9760 C   0  0  0  0  0  0
   23.8520  -47.7360   32.1490 C   0  0  0  0  0  0
   23.6480  -49.0210   31.7180 O   0  0  0  0  0  0
   22.2960  -49.3010   31.3150 C   0  0  0  0  0  0
   23.6870  -46.6220   31.3210 C   0  0  0  0  0  0
   23.9220  -45.3430   31.8160 C   0  0  0  0  0  0
   24.3260  -45.1700   33.1440 C   0  0  0  0  0  0
   24.5600  -43.8900   33.6550 C   0  0  2  0  0  0
   26.0900  -43.5340   33.6950 C   0  0  0  0  0  0
   27.0420  -44.6620   33.1530 C   0  0  0  0  0  0
   26.5340  -43.1740   35.1410 C   0  0  0  0  0  0
   23.9310  -43.8600   35.0290 C   0  0  0  0  0  0
   23.1870  -43.8520   35.9690 N   0  0  0  0  0  0
   23.8600  -42.8570   32.7230 C   0  0  0  0  0  0
   23.3940  -41.5540   33.4030 C   0  0  0  0  0  0
   21.9060  -41.6030   33.8060 C   0  0  0  0  0  0
   20.9230  -41.5000   32.7020 N   0  3  1  0  0  0
   21.1230  -40.3540   31.7970 C   0  0  0  0  0  0
   20.7320  -42.7660   31.9590 C   0  0  0  0  0  0
   19.2430  -43.1110   31.7460 C   0  0  0  0  0  0
   19.0110  -44.4980   31.7800 C   0  0  0  0  0  0
   19.1020  -45.2010   32.9810 C   0  0  0  0  0  0
   18.6650  -45.1990   30.6180 C   0  0  0  0  0  0
   18.4260  -46.5850   30.6520 C   0  0  0  0  0  0
   18.5120  -47.2960   31.8610 C   0  0  0  0  0  0
   18.3070  -48.6670   31.9630 O   0  0  0  0  0  0
   16.9510  -49.1410   31.9520 C   0  0  0  0  0  0
   18.8660  -46.5820   33.0210 C   0  0  0  0  0  0
   18.9680  -47.2590   34.1960 O   0  0  0  0  0  0
   19.8830  -46.5680   35.0680 C   0  0  0  0  0  0
   23.3976  -49.9266   35.5867 H   0  0  0  0  0  0
   22.3823  -49.1913   34.3002 H   0  0  0  0  0  0
   22.9715  -48.1834   35.6654 H   0  0  0  0  0  0
   24.7881  -46.1573   35.0140 H   0  0  0  0  0  0
   22.2210  -50.3478   30.9854 H   0  0  0  0  0  0
   22.0150  -48.6346   30.4862 H   0  0  0  0  0  0
   21.6181  -49.1347   32.1652 H   0  0  0  0  0  0
   23.3736  -46.7555   30.2856 H   0  0  0  0  0  0
   23.7913  -44.4757   31.1688 H   0  0  0  0  0  0
   26.1935  -42.6658   33.0276 H   0  0  0  0  0  0
   26.7446  -44.9321   32.1290 H   0  0  0  0  0  0
   26.9681  -45.5472   33.8018 H   0  0  0  0  0  0
   28.0792  -44.2958   33.1491 H   0  0  0  0  0  0
   25.8795  -42.3849   35.5398 H   0  0  0  0  0  0
   27.5738  -42.8155   35.1267 H   0  0  0  0  0  0
   26.4627  -44.0669   35.7794 H   0  0  0  0  0  0
   24.5524  -42.5573   31.9225 H   0  0  0  0  0  0
   22.9622  -43.3124   32.2798 H   0  0  0  0  0  0
   23.9876  -41.3828   34.3131 H   0  0  0  0  0  0
   23.5316  -40.7099   32.7113 H   0  0  0  0  0  0
   21.6943  -42.5568   34.3114 H   0  0  0  0  0  0
   21.6832  -40.7692   34.4881 H   0  0  0  0  0  0
   19.9767  -41.2873   33.2209 H   0  0  0  0  0  0
   21.2603  -39.4379   32.3903 H   0  0  0  0  0  0
   20.2424  -40.2417   31.1474 H   0  0  0  0  0  0
   22.0156  -40.5271   31.1779 H   0  0  0  0  0  0
   21.2046  -42.6850   30.9690 H   0  0  0  0  0  0
   21.1932  -43.5929   32.5189 H   0  0  0  0  0  0
   18.6412  -42.6435   32.5393 H   0  0  0  0  0  0
   18.9155  -42.7329   30.7663 H   0  0  0  0  0  0
   19.3593  -44.6710   33.8981 H   0  0  0  0  0  0
   18.5796  -44.6626   29.6730 H   0  0  0  0  0  0
   18.1719  -47.1120   29.7323 H   0  0  0  0  0  0
   16.9452  -50.2375   32.0393 H   0  0  0  0  0  0
   16.4670  -48.8456   31.0094 H   0  0  0  0  0  0
   16.4026  -48.7028   32.7989 H   0  0  0  0  0  0
   19.9666  -47.1145   36.0190 H   0  0  0  0  0  0
   19.5090  -45.5516   35.2607 H   0  0  0  0  0  0
   20.8721  -46.5103   34.5901 H   0  0  0  0  0  0
  1  2  1  0  0  0
  1 34  1  0  0  0
  1 35  1  0  0  0
  1 36  1  0  0  0
  2  3  1  0  0  0
  3  4  2  0  0  0
  3  5  1  0  0  0
  4 10  1  0  0  0
  4 37  1  0  0  0
  5  6  1  0  0  0
  5  8  2  0  0  0
  6  7  1  0  0  0
  7 38  1  0  0  0
  7 39  1  0  0  0
  7 40  1  0  0  0
  8  9  1  0  0  0
  8 41  1  0  0  0
  9 10  2  0  0  0
  9 42  1  0  0  0
 10 11  1  0  0  0
 11 12  1  0  0  0
 11 15  1  0  0  0
 11 17  1  0  0  0
 12 13  1  0  0  0
 12 14  1  0  0  0
 12 43  1  0  0  0
 13 44  1  0  0  0
 13 45  1  0  0  0
 13 46  1  0  0  0
 14 47  1  0  0  0
 14 48  1  0  0  0
 14 49  1  0  0  0
 15 16  3  0  0  0
 17 18  1  0  0  0
 17 50  1  0  0  0
 17 51  1  0  0  0
 18 19  1  0  0  0
 18 52  1  0  0  0
 18 53  1  0  0  0
 19 20  1  0  0  0
 19 54  1  0  0  0
 19 55  1  0  0  0
 20 21  1  0  0  0
 20 22  1  0  0  0
 20 56  1  0  0  0
 21 57  1  0  0  0
 21 58  1  0  0  0
 21 59  1  0  0  0
 22 23  1  0  0  0
 22 60  1  0  0  0
 22 61  1  0  0  0
 23 24  1  0  0  0
 23 62  1  0  0  0
 23 63  1  0  0  0
 24 25  2  0  0  0
 24 26  1  0  0  0
 25 31  1  0  0  0
 25 64  1  0  0  0
 26 27  2  0  0  0
 26 65  1  0  0  0
 27 28  1  0  0  0
 27 66  1  0  0  0
 28 29  1  0  0  0
 28 31  2  0  0  0
 29 30  1  0  0  0
 30 67  1  0  0  0
 30 68  1  0  0  0
 30 69  1  0  0  0
 31 32  1  0  0  0
 32 33  1  0  0  0
 33 70  1  0  0  0
 33 71  1  0  0  0
 33 72  1  0  0  0
M  CHG  1  20   1
M  END
> <s_m_source_file>
../5c6p_ligand.sdf

> <i_m_source_file_index>
1

> <s_epik_input>
W0NIM11PYzFbY0hdW2NIXWMoW2NIXWMxT1tDSDNdKVtDQEBdKEMjTikoW0NIXShbQ0gzXSlbQ0gzXSlbQ0gyXVtDSDJdW0NIMl1bTkBASCtdKFtDSDNdKVtDSDJdW0NIMl1jMltjSF1jKE9bQ0gzXSljKFtjSF1bY0hdMilPW0NIM10=

> <s_epik_cmdline>
J2VwaWtfYXBwJywgJy1pbWFlJywgJ2xpZ2FuZF9wcm8ubWFlJywgJy1vbWFlJywgJ2xpZ2FuZF9wcmVwLm1hZScsICctbXMnLCAnMScsICctcGgnLCAnNycsICctcGh0JywgJzAuNScsICctbnQn

> <r_lp_tautomer_probability>
1

> <r_epik_Ionization_Penalty>
  0.0069

> <r_epik_Ionization_Penalty_Charging>
  0.0069

> <r_epik_Ionization_Penalty_Neutral>
  0.0000

> <r_epik_State_Penalty>
 -0.0000

> <r_epik_Charging_Adjusted_Penalty>
0.00685717919796007

> <i_epik_Tot_Q>
1

> <i_epik_Tot_abs_Q>
1

$$$$
