5c6v_ligand
                    3D
 Schrodinger Suite 2020-3.
100 99  0  0  1  0            999 V2000
    0.5480   62.4560  173.0980 N   0  3  0  0  0  0
   -0.8610   62.2960  173.4170 C   0  0  0  0  0  0
   -1.7710   62.9170  172.3740 C   0  0  0  0  0  0
   -2.5570   62.2210  171.7320 O   0  0  0  0  0  0
   -1.7210   64.2420  172.2710 N   0  0  0  0  0  0
   -2.3810   64.9950  171.1960 C   0  0  2  0  0  0
   -1.4430   65.4530  170.0840 C   0  0  0  0  0  0
   -1.8050   66.3010  169.2610 O   0  0  0  0  0  0
   -3.1450   66.1940  171.7370 C   0  0  0  0  0  0
   -4.5300   65.9370  172.3330 C   0  0  0  0  0  0
   -4.6570   64.6500  173.1330 C   0  0  0  0  0  0
   -4.9160   67.1380  173.1680 C   0  0  0  0  0  0
   -0.2180   64.9460  170.1050 N   0  0  0  0  0  0
    0.7570   65.2900  169.0910 C   0  0  2  0  0  0
    0.2870   64.7470  167.7360 C   0  0  0  0  0  0
   -0.2880   63.6550  167.6600 O   0  0  0  0  0  0
    2.1120   64.6970  169.4790 C   0  0  0  0  0  0
    3.3360   65.4210  168.9570 C   0  0  0  0  0  0
    4.6180   64.6720  169.2860 C   0  0  0  0  0  0
    4.9180   63.6880  168.5770 O   0  0  0  0  0  0
    5.3150   65.0530  170.2540 O   0  5  0  0  0  0
    0.5020   65.5110  166.6700 N   0  0  0  0  0  0
    0.1560   65.0290  165.3410 C   0  0  2  0  0  0
    1.2600   64.0480  164.9430 C   0  0  0  0  0  0
    2.4290   64.2890  165.2520 O   0  0  0  0  0  0
    0.0240   66.1870  164.3570 C   0  0  0  0  0  0
   -0.8730   67.3090  164.8910 C   0  0  0  0  0  0
   -1.0070   68.4610  163.9080 C   0  0  0  0  0  0
   -2.2380   66.7690  165.2630 C   0  0  0  0  0  0
    0.9120   62.9530  164.2690 N   0  0  0  0  0  0
    1.9190   61.9610  163.8600 C   0  0  2  0  0  0
    1.5210   61.1330  162.6430 C   0  0  0  0  0  0
    0.4030   61.2330  162.1500 O   0  0  0  0  0  0
    2.2400   61.0050  165.0190 C   0  0  0  0  0  0
    2.9450   61.6630  166.0580 O   0  0  0  0  0  0
    2.4470   60.3050  162.1690 N   0  0  0  0  0  0
    2.1980   59.4750  160.9960 C   0  0  2  0  0  0
    1.1790   58.3640  161.2490 C   0  0  0  0  0  0
    0.3330   58.0870  160.3940 O   0  0  0  0  0  0
    3.5150   58.8810  160.4910 C   0  0  0  0  0  0
    4.0650   59.5800  159.2510 C   0  0  0  0  0  0
    5.3460   58.9320  158.7330 C   0  0  0  0  0  0
    2.9800   59.5240  158.1880 C   0  0  0  0  0  0
    1.2410   57.7450  162.4230 N   0  0  0  0  0  0
    0.3460   56.6460  162.7410 C   0  0  0  0  0  0
    0.0780   56.5080  164.2260 C   0  0  0  0  0  0
   -0.0730   57.5030  164.9380 O   0  5  0  0  0  0
    0.0050   55.3980  164.7560 O   0  0  0  0  0  0
    1.1576   61.9886  173.8854 H   0  0  0  0  0  0
    0.7901   63.5271  173.0341 H   0  0  0  0  0  0
    0.7626   61.9734  172.1331 H   0  0  0  0  0  0
   -1.1031   61.2249  173.4809 H   0  0  0  0  0  0
   -1.0756   62.7786  174.3819 H   0  0  0  0  0  0
   -1.1488   64.7750  173.0447 H   0  0  0  0  0  0
   -3.0712   64.2469  170.7789 H   0  0  0  0  0  0
   -2.5640   66.6656  172.5432 H   0  0  0  0  0  0
   -3.3066   66.9214  170.9278 H   0  0  0  0  0  0
   -5.2316   65.7994  171.4970 H   0  0  0  0  0  0
   -4.3705   63.7960  172.5016 H   0  0  0  0  0  0
   -5.6980   64.5267  173.4663 H   0  0  0  0  0  0
   -3.9943   64.6964  174.0098 H   0  0  0  0  0  0
   -4.8145   68.0520  172.5645 H   0  0  0  0  0  0
   -4.2552   67.2024  174.0450 H   0  0  0  0  0  0
   -5.9589   67.0327  173.5016 H   0  0  0  0  0  0
    0.0516   64.2511  170.9140 H   0  0  0  0  0  0
    0.8237   66.3874  169.0561 H   0  0  0  0  0  0
    2.2091   64.6903  170.5747 H   0  0  0  0  0  0
    2.1843   63.6676  169.0982 H   0  0  0  0  0  0
    3.2648   65.5203  167.8638 H   0  0  0  0  0  0
    3.3931   66.4204  169.4130 H   0  0  0  0  0  0
    0.9431   66.5109  166.7948 H   0  0  0  0  0  0
   -0.8272   64.5374  165.3805 H   0  0  0  0  0  0
    1.0181   66.6134  164.1571 H   0  0  0  0  0  0
   -0.4138   65.8210  163.4166 H   0  0  0  0  0  0
   -0.3968   67.7124  165.7968 H   0  0  0  0  0  0
   -0.0074   68.8403  163.6492 H   0  0  0  0  0  0
   -1.5978   69.2675  164.3667 H   0  0  0  0  0  0
   -1.5127   68.1086  162.9969 H   0  0  0  0  0  0
   -2.1221   65.9375  165.9737 H   0  0  0  0  0  0
   -2.7491   66.4092  164.3578 H   0  0  0  0  0  0
   -2.8343   67.5681  165.7276 H   0  0  0  0  0  0
   -0.1476   62.7964  164.0187 H   0  0  0  0  0  0
    2.7783   62.5888  163.5818 H   0  0  0  0  0  0
    1.3033   60.6048  165.4343 H   0  0  0  0  0  0
    2.8609   60.1758  164.6491 H   0  0  0  0  0  0
    3.2451   61.1058  166.9577 H   0  0  0  0  0  0
    3.4185   60.2544  162.6824 H   0  0  0  0  0  0
    1.7630   60.1709  160.2635 H   0  0  0  0  0  0
    4.2788   58.9603  161.2786 H   0  0  0  0  0  0
    3.3643   57.8227  160.2316 H   0  0  0  0  0  0
    4.3269   60.6181  159.5033 H   0  0  0  0  0  0
    6.1217   58.9795  159.5115 H   0  0  0  0  0  0
    5.6921   59.4686  157.8373 H   0  0  0  0  0  0
    5.1475   57.8808  158.4768 H   0  0  0  0  0  0
    2.0636   59.9939  158.5744 H   0  0  0  0  0  0
    2.7733   58.4749  157.9299 H   0  0  0  0  0  0
    3.3179   60.0627  157.2904 H   0  0  0  0  0  0
    1.9865   58.0781  163.1601 H   0  0  0  0  0  0
   -0.6211   56.8044  162.2413 H   0  0  0  0  0  0
    0.7880   55.7007  162.3931 H   0  0  0  0  0  0
  1  2  1  0  0  0
  1 49  1  0  0  0
  1 50  1  0  0  0
  1 51  1  0  0  0
  2  3  1  0  0  0
  2 52  1  0  0  0
  2 53  1  0  0  0
  3  4  2  0  0  0
  3  5  1  0  0  0
  5  6  1  0  0  0
  5 54  1  0  0  0
  6  7  1  0  0  0
  6  9  1  0  0  0
  6 55  1  0  0  0
  7  8  2  0  0  0
  7 13  1  0  0  0
  9 10  1  0  0  0
  9 56  1  0  0  0
  9 57  1  0  0  0
 10 11  1  0  0  0
 10 12  1  0  0  0
 10 58  1  0  0  0
 11 59  1  0  0  0
 11 60  1  0  0  0
 11 61  1  0  0  0
 12 62  1  0  0  0
 12 63  1  0  0  0
 12 64  1  0  0  0
 13 14  1  0  0  0
 13 65  1  0  0  0
 14 15  1  0  0  0
 14 17  1  0  0  0
 14 66  1  0  0  0
 15 16  2  0  0  0
 15 22  1  0  0  0
 17 18  1  0  0  0
 17 67  1  0  0  0
 17 68  1  0  0  0
 18 19  1  0  0  0
 18 69  1  0  0  0
 18 70  1  0  0  0
 19 20  2  0  0  0
 19 21  1  0  0  0
 22 23  1  0  0  0
 22 71  1  0  0  0
 23 24  1  0  0  0
 23 26  1  0  0  0
 23 72  1  0  0  0
 24 25  2  0  0  0
 24 30  1  0  0  0
 26 27  1  0  0  0
 26 73  1  0  0  0
 26 74  1  0  0  0
 27 28  1  0  0  0
 27 29  1  0  0  0
 27 75  1  0  0  0
 28 76  1  0  0  0
 28 77  1  0  0  0
 28 78  1  0  0  0
 29 79  1  0  0  0
 29 80  1  0  0  0
 29 81  1  0  0  0
 30 31  1  0  0  0
 30 82  1  0  0  0
 31 32  1  0  0  0
 31 34  1  0  0  0
 31 83  1  0  0  0
 32 33  2  0  0  0
 32 36  1  0  0  0
 34 35  1  0  0  0
 34 84  1  0  0  0
 34 85  1  0  0  0
 35 86  1  0  0  0
 36 37  1  0  0  0
 36 87  1  0  0  0
 37 38  1  0  0  0
 37 40  1  0  0  0
 37 88  1  0  0  0
 38 39  2  0  0  0
 38 44  1  0  0  0
 40 41  1  0  0  0
 40 89  1  0  0  0
 40 90  1  0  0  0
 41 42  1  0  0  0
 41 43  1  0  0  0
 41 91  1  0  0  0
 42 92  1  0  0  0
 42 93  1  0  0  0
 42 94  1  0  0  0
 43 95  1  0  0  0
 43 96  1  0  0  0
 43 97  1  0  0  0
 44 45  1  0  0  0
 44 98  1  0  0  0
 45 46  1  0  0  0
 45 99  1  0  0  0
 45100  1  0  0  0
 46 47  1  0  0  0
 46 48  2  0  0  0
M  CHG  3   1   1  21  -1  47  -1
M  END
> <s_m_source_file>
../5c6v_ligand.sdf

> <i_m_source_file_index>
1

> <s_epik_input>
W05IMytdW0NIMl1DKD1PKVtOSF1bQ0BASF0oW0NIMl1bQ0hdKFtDSDNdKVtDSDNdKUMoPU8pW05IXVtDQEBIXShbQ0gyXVtDSDJdQyg9TylbT0hdKUMoPU8pW05IXVtDQEBIXShbQ0gyXVtDSF0oW0NIM10pW0NIM10pQyg9TylbTkhdW0NAQEhdKFtDSDJdW09IXSlDKD1PKVtOSF1bQ0BASF0oW0NIMl1bQ0hdKFtDSDNdKVtDSDNdKUMoPU8pW05IXVtDSDJdQyg9TylbT0hd

> <s_epik_cmdline>
J2VwaWtfYXBwJywgJy1pbWFlJywgJ2xpZ2FuZF9wcm8ubWFlJywgJy1vbWFlJywgJ2xpZ2FuZF9wcmVwLm1hZScsICctbXMnLCAnMScsICctcGgnLCAnNycsICctcGh0JywgJzAuNScsICctbnQn

> <r_epik_Ionization_Penalty>
  0.1218

> <r_epik_Ionization_Penalty_Charging>
  0.1218

> <r_epik_Ionization_Penalty_Neutral>
  0.0000

> <r_epik_State_Penalty>
  0.1095

> <r_epik_Charging_Adjusted_Penalty>
0.231302577225735

> <i_epik_Tot_Q>
-1

> <i_epik_Tot_abs_Q>
3

$$$$
