5c7a_ligand
                    3D
 Schrodinger Suite 2020-3.
 41 43  0  0  1  0            999 V2000
  -15.3760  -21.4430   -0.3470 C   0  0  0  0  0  0
  -15.9110  -20.1020   -0.8360 C   0  0  2  0  0  0
  -15.8980  -19.9890   -2.3600 C   0  0  0  0  0  0
  -16.3330  -18.6640   -2.8210 N   0  0  2  0  0  0
  -16.4980  -18.5770   -4.2800 C   0  0  0  0  0  0
  -15.2600  -18.8670   -5.1130 C   0  0  0  0  0  0
  -16.4790  -19.0630   -8.6090 C   0  0  0  0  0  0
  -15.0020  -19.3330   -8.6890 C   0  0  0  0  0  0
  -14.2140  -19.6230   -9.7910 C   0  0  0  0  0  0
  -12.8530  -19.8400   -9.6330 C   0  0  0  0  0  0
  -12.2790  -19.7670   -8.3790 C   0  0  0  0  0  0
  -13.0590  -19.4770   -7.2720 C   0  0  0  0  0  0
  -14.4170  -19.2610   -7.4320 C   0  0  0  0  0  0
  -14.1680  -19.0160   -4.5810 O   0  0  0  0  0  0
  -15.4170  -18.9540   -6.4770 N   0  0  0  0  0  0
  -16.7170  -18.7000   -7.1540 C   0  0  0  0  0  0
  -15.4800  -17.6070   -2.2630 C   0  0  0  0  0  0
  -15.5050  -17.6500   -0.7450 C   0  0  0  0  0  0
  -15.0780  -18.9910   -0.2650 N   0  3  0  0  0  0
  -15.9869  -22.2562   -0.7659 H   0  0  0  0  0  0
  -15.4226  -21.4778    0.7515 H   0  0  0  0  0  0
  -14.3325  -21.5626   -0.6738 H   0  0  0  0  0  0
  -16.9504  -20.0139   -0.4868 H   0  0  0  0  0  0
  -14.8774  -20.1624   -2.7318 H   0  0  0  0  0  0
  -16.5771  -20.7404   -2.7892 H   0  0  0  0  0  0
  -17.2600  -19.2999   -4.6066 H   0  0  0  0  0  0
  -16.8165  -17.5601   -4.5530 H   0  0  0  0  0  0
  -16.7379  -18.2364   -9.2870 H   0  0  0  0  0  0
  -17.0334  -19.9662   -8.9037 H   0  0  0  0  0  0
  -14.6635  -19.6807  -10.7823 H   0  0  0  0  0  0
  -12.2348  -20.0688  -10.5011 H   0  0  0  0  0  0
  -11.2091  -19.9381   -8.2602 H   0  0  0  0  0  0
  -12.6069  -19.4192   -6.2819 H   0  0  0  0  0  0
  -17.0120  -17.6427   -7.0834 H   0  0  0  0  0  0
  -17.5186  -19.3324   -6.7447 H   0  0  0  0  0  0
  -14.4453  -17.7506   -2.6077 H   0  0  0  0  0  0
  -15.8454  -16.6254   -2.5989 H   0  0  0  0  0  0
  -14.8195  -16.8883   -0.3453 H   0  0  0  0  0  0
  -16.5259  -17.4473   -0.3892 H   0  0  0  0  0  0
  -15.1594  -18.9983    0.8320 H   0  0  0  0  0  0
  -14.0268  -19.1343   -0.5556 H   0  0  0  0  0  0
  1  2  1  0  0  0
  1 20  1  0  0  0
  1 21  1  0  0  0
  1 22  1  0  0  0
  2  3  1  0  0  0
  2 19  1  0  0  0
  2 23  1  0  0  0
  3  4  1  0  0  0
  3 24  1  0  0  0
  3 25  1  0  0  0
  4  5  1  0  0  0
  4 17  1  0  0  0
  5  6  1  0  0  0
  5 26  1  0  0  0
  5 27  1  0  0  0
  6 14  2  0  0  0
  6 15  1  0  0  0
  7  8  1  0  0  0
  7 16  1  0  0  0
  7 28  1  0  0  0
  7 29  1  0  0  0
  8  9  2  0  0  0
  8 13  1  0  0  0
  9 10  1  0  0  0
  9 30  1  0  0  0
 10 11  2  0  0  0
 10 31  1  0  0  0
 11 12  1  0  0  0
 11 32  1  0  0  0
 12 13  2  0  0  0
 12 33  1  0  0  0
 13 15  1  0  0  0
 15 16  1  0  0  0
 16 34  1  0  0  0
 16 35  1  0  0  0
 17 18  1  0  0  0
 17 36  1  0  0  0
 17 37  1  0  0  0
 18 19  1  0  0  0
 18 38  1  0  0  0
 18 39  1  0  0  0
 19 40  1  0  0  0
 19 41  1  0  0  0
M  CHG  1  19   1
M  END
> <s_m_source_file>
../5c7a_ligand.sdf

> <i_m_source_file_index>
1

> <s_epik_input>
W0NIM11bQ0BASF0xW0NIMl1bTkBASCtdKFtDSDJdW0NIMl1bTkgyK10xKVtDSDJdQyg9TylOKFtDSDJdW0NIMl0yKWMoYzIzKVtjSF1bY0hdW2NIXVtjSF0z

> <s_epik_cmdline>
J2VwaWtfYXBwJywgJy1pbWFlJywgJ2xpZ2FuZF9wcm8ubWFlJywgJy1vbWFlJywgJ2xpZ2FuZF9wcmVwLm1hZScsICctbXMnLCAnMScsICctcGgnLCAnNycsICctcGh0JywgJzAuNScsICctbnQn

> <r_lp_tautomer_probability>
1

> <r_epik_Ionization_Penalty>
  0.0091

> <r_epik_Ionization_Penalty_Charging>
  0.0054

> <r_epik_Ionization_Penalty_Neutral>
  0.0037

> <r_epik_State_Penalty>
 -0.0000

> <r_epik_Charging_Adjusted_Penalty>
0.00543005466401312

> <i_epik_Tot_Q>
1

> <i_epik_Tot_abs_Q>
1

$$$$
