5c7b_ligand
                    3D
 Schrodinger Suite 2020-3.
 37 38  0  0  1  0            999 V2000
  -15.2350  -21.6550   -0.5670 C   0  0  0  0  0  0
  -15.8160  -20.2860   -0.8860 C   0  0  2  0  0  0
  -15.8160  -20.0190   -2.3890 C   0  0  0  0  0  0
  -16.2160  -18.6500   -2.7400 N   0  0  2  0  0  0
  -16.3550  -18.4380   -4.1930 C   0  0  0  0  0  0
  -15.1780  -18.8580   -5.0720 C   0  0  0  0  0  0
  -14.9380  -19.2480   -8.6810 C   0  0  0  0  0  0
  -16.2550  -18.5250   -8.5330 C   0  0  0  0  0  0
  -16.6650  -18.7990   -7.1130 C   0  0  0  0  0  0
  -15.3350  -17.6790   -2.0890 C   0  0  0  0  0  0
  -15.3930  -17.8440   -0.5810 C   0  0  0  0  0  0
  -14.0930  -19.1630   -4.5900 O   0  0  0  0  0  0
  -15.3770  -18.8830   -6.4050 N   0  0  0  0  0  0
  -14.2540  -19.0810   -7.3350 C   0  0  0  0  0  0
  -15.0000  -19.2270   -0.2010 N   0  3  0  0  0  0
  -15.8312  -22.4321   -1.0677 H   0  0  0  0  0  0
  -15.2583  -21.8188    0.5205 H   0  0  0  0  0  0
  -14.1954  -21.7041   -0.9231 H   0  0  0  0  0  0
  -16.8515  -20.2541   -0.5161 H   0  0  0  0  0  0
  -14.8044  -20.1799   -2.7900 H   0  0  0  0  0  0
  -16.5197  -20.7050   -2.8833 H   0  0  0  0  0  0
  -17.2195  -19.0072   -4.5655 H   0  0  0  0  0  0
  -16.5066  -17.3673   -4.3945 H   0  0  0  0  0  0
  -15.1250  -20.3062   -8.9160 H   0  0  0  0  0  0
  -14.3571  -18.7889   -9.4945 H   0  0  0  0  0  0
  -16.1070  -17.4514   -8.7211 H   0  0  0  0  0  0
  -16.9780  -18.9280   -9.2575 H   0  0  0  0  0  0
  -17.2947  -17.9744   -6.7476 H   0  0  0  0  0  0
  -17.2325  -19.7404   -7.0703 H   0  0  0  0  0  0
  -14.3007  -17.8373   -2.4282 H   0  0  0  0  0  0
  -15.6550  -16.6598   -2.3515 H   0  0  0  0  0  0
  -14.7029  -17.1303   -0.1073 H   0  0  0  0  0  0
  -16.4176  -17.6513   -0.2302 H   0  0  0  0  0  0
  -13.6726  -19.9859   -7.1044 H   0  0  0  0  0  0
  -13.5807  -18.2119   -7.3712 H   0  0  0  0  0  0
  -15.1212  -19.3183    0.8885 H   0  0  0  0  0  0
  -13.9394  -19.3540   -0.4639 H   0  0  0  0  0  0
  1  2  1  0  0  0
  1 16  1  0  0  0
  1 17  1  0  0  0
  1 18  1  0  0  0
  2  3  1  0  0  0
  2 15  1  0  0  0
  2 19  1  0  0  0
  3  4  1  0  0  0
  3 20  1  0  0  0
  3 21  1  0  0  0
  4  5  1  0  0  0
  4 10  1  0  0  0
  5  6  1  0  0  0
  5 22  1  0  0  0
  5 23  1  0  0  0
  6 12  2  0  0  0
  6 13  1  0  0  0
  7  8  1  0  0  0
  7 14  1  0  0  0
  7 24  1  0  0  0
  7 25  1  0  0  0
  8  9  1  0  0  0
  8 26  1  0  0  0
  8 27  1  0  0  0
  9 13  1  0  0  0
  9 28  1  0  0  0
  9 29  1  0  0  0
 10 11  1  0  0  0
 10 30  1  0  0  0
 10 31  1  0  0  0
 11 15  1  0  0  0
 11 32  1  0  0  0
 11 33  1  0  0  0
 13 14  1  0  0  0
 14 34  1  0  0  0
 14 35  1  0  0  0
 15 36  1  0  0  0
 15 37  1  0  0  0
M  CHG  1  15   1
M  END
> <s_m_source_file>
../5c7b_ligand.sdf

> <i_m_source_file_index>
1

> <s_epik_input>
W0NIM11bQ0BASF0xW0NIMl1bTkBASCtdKFtDSDJdW0NIMl1bTkgyK10xKVtDSDJdQyg9TylOMltDSDJdW0NIMl1bQ0gyXVtDSDJdMg==

> <s_epik_cmdline>
J2VwaWtfYXBwJywgJy1pbWFlJywgJ2xpZ2FuZF9wcm8ubWFlJywgJy1vbWFlJywgJ2xpZ2FuZF9wcmVwLm1hZScsICctbXMnLCAnMScsICctcGgnLCAnNycsICctcGh0JywgJzAuNScsICctbnQn

> <r_lp_tautomer_probability>
1

> <r_epik_Ionization_Penalty>
  0.0124

> <r_epik_Ionization_Penalty_Charging>
  0.0048

> <r_epik_Ionization_Penalty_Neutral>
  0.0077

> <r_epik_State_Penalty>
 -0.0000

> <r_epik_Charging_Adjusted_Penalty>
0.00477537780348284

> <i_epik_Tot_Q>
1

> <i_epik_Tot_abs_Q>
1

$$$$
