5c7c_ligand
                    3D
 Schrodinger Suite 2020-3.
 47 49  0  0  1  0            999 V2000
  -15.2520  -21.3420   -0.6490 C   0  0  0  0  0  0
  -15.6980  -19.9800   -1.1620 C   0  0  2  0  0  0
  -15.6570  -19.8880   -2.6840 C   0  0  0  0  0  0
  -16.0320  -18.5500   -3.1630 N   0  0  2  0  0  0
  -16.1670  -18.4730   -4.6270 C   0  0  0  0  0  0
  -14.9210  -18.7960   -5.4400 C   0  0  0  0  0  0
  -15.9480  -18.4970   -9.0110 C   0  0  0  0  0  0
  -16.9030  -19.2620   -9.9190 C   0  0  0  0  0  0
  -15.9450  -17.0320   -9.4230 C   0  0  0  0  0  0
  -14.5400  -19.0640   -9.0320 C   0  0  0  0  0  0
  -13.7460  -19.4040  -10.1130 C   0  0  0  0  0  0
  -12.4720  -19.9130   -9.9010 C   0  0  0  0  0  0
  -12.0050  -20.0770   -8.6120 C   0  0  0  0  0  0
  -14.0560  -19.2350   -7.7420 C   0  0  0  0  0  0
  -15.1720  -17.5550   -1.0820 C   0  0  0  0  0  0
  -13.8530  -19.0250   -4.8890 O   0  0  0  0  0  0
  -15.0450  -18.8200   -6.8180 N   0  0  0  0  0  0
  -16.3400  -18.6540   -7.5290 C   0  0  0  0  0  0
  -10.4060  -20.7160   -8.3560 Cl  0  0  0  0  0  0
  -12.7840  -19.7430   -7.5210 C   0  0  0  0  0  0
  -15.1470  -17.5190   -2.6020 C   0  0  0  0  0  0
  -14.8060  -18.9120   -0.5960 N   0  3  0  0  0  0
  -15.9063  -22.1225   -1.0645 H   0  0  0  0  0  0
  -15.3135  -21.3583    0.4492 H   0  0  0  0  0  0
  -14.2139  -21.5293   -0.9610 H   0  0  0  0  0  0
  -16.7352  -19.8281   -0.8288 H   0  0  0  0  0  0
  -14.6386  -20.1072   -3.0373 H   0  0  0  0  0  0
  -16.3592  -20.6171   -3.1145 H   0  0  0  0  0  0
  -16.9377  -19.1828   -4.9620 H   0  0  0  0  0  0
  -16.4585  -17.4522   -4.9152 H   0  0  0  0  0  0
  -16.5969  -19.1302  -10.9673 H   0  0  0  0  0  0
  -17.9246  -18.8771   -9.7841 H   0  0  0  0  0  0
  -16.8769  -20.3310   -9.6610 H   0  0  0  0  0  0
  -15.6624  -16.9498  -10.4829 H   0  0  0  0  0  0
  -15.2209  -16.4792   -8.8065 H   0  0  0  0  0  0
  -16.9496  -16.6081   -9.2774 H   0  0  0  0  0  0
  -14.1199  -19.2725  -11.1284 H   0  0  0  0  0  0
  -11.8425  -20.1823  -10.7491 H   0  0  0  0  0  0
  -14.4519  -16.8237   -0.6860 H   0  0  0  0  0  0
  -16.1822  -17.3047   -0.7258 H   0  0  0  0  0  0
  -16.8794  -17.7553   -7.1952 H   0  0  0  0  0  0
  -16.9882  -19.5351   -7.4125 H   0  0  0  0  0  0
  -12.4069  -19.8759   -6.5070 H   0  0  0  0  0  0
  -14.1164  -17.6948   -2.9440 H   0  0  0  0  0  0
  -15.4808  -16.5264   -2.9388 H   0  0  0  0  0  0
  -14.8834  -18.9132    0.5013 H   0  0  0  0  0  0
  -13.7648  -19.1099   -0.8904 H   0  0  0  0  0  0
  1  2  1  0  0  0
  1 23  1  0  0  0
  1 24  1  0  0  0
  1 25  1  0  0  0
  2  3  1  0  0  0
  2 22  1  0  0  0
  2 26  1  0  0  0
  3  4  1  0  0  0
  3 27  1  0  0  0
  3 28  1  0  0  0
  4  5  1  0  0  0
  4 21  1  0  0  0
  5  6  1  0  0  0
  5 29  1  0  0  0
  5 30  1  0  0  0
  6 16  2  0  0  0
  6 17  1  0  0  0
  7  8  1  0  0  0
  7  9  1  0  0  0
  7 10  1  0  0  0
  7 18  1  0  0  0
  8 31  1  0  0  0
  8 32  1  0  0  0
  8 33  1  0  0  0
  9 34  1  0  0  0
  9 35  1  0  0  0
  9 36  1  0  0  0
 10 11  2  0  0  0
 10 14  1  0  0  0
 11 12  1  0  0  0
 11 37  1  0  0  0
 12 13  2  0  0  0
 12 38  1  0  0  0
 13 19  1  0  0  0
 13 20  1  0  0  0
 14 17  1  0  0  0
 14 20  2  0  0  0
 15 21  1  0  0  0
 15 22  1  0  0  0
 15 39  1  0  0  0
 15 40  1  0  0  0
 17 18  1  0  0  0
 18 41  1  0  0  0
 18 42  1  0  0  0
 20 43  1  0  0  0
 21 44  1  0  0  0
 21 45  1  0  0  0
 22 46  1  0  0  0
 22 47  1  0  0  0
M  CHG  1  22   1
M  END
> <s_m_source_file>
../5c7c_ligand.sdf

> <i_m_source_file_index>
1

> <s_epik_input>
W0NIM11bQ0BASF0xW0NIMl1bTkBASCtdKFtDSDJdW0NIMl1bTkgyK10xKVtDSDJdQyg9TylOKFtDSDJdQzIoW0NIM10pW0NIM10pYyhjMjMpW2NIXWMoQ2wpW2NIXVtjSF0z

> <s_epik_cmdline>
J2VwaWtfYXBwJywgJy1pbWFlJywgJ2xpZ2FuZF9wcm8ubWFlJywgJy1vbWFlJywgJ2xpZ2FuZF9wcmVwLm1hZScsICctbXMnLCAnMScsICctcGgnLCAnNycsICctcGh0JywgJzAuNScsICctbnQn

> <r_lp_tautomer_probability>
1

> <r_epik_Ionization_Penalty>
  0.0087

> <r_epik_Ionization_Penalty_Charging>
  0.0056

> <r_epik_Ionization_Penalty_Neutral>
  0.0031

> <r_epik_State_Penalty>
 -0.0000

> <r_epik_Charging_Adjusted_Penalty>
0.00559284647617998

> <i_epik_Tot_Q>
1

> <i_epik_Tot_abs_Q>
1

$$$$
