5c7d_ligand
                    3D
 Schrodinger Suite 2020-3.
 40 42  0  0  1  0            999 V2000
  -15.4820  -21.5650   -0.3400 C   0  0  0  0  0  0
  -15.9400  -20.1800   -0.7710 C   0  0  2  0  0  0
  -15.9310  -20.0100   -2.2880 C   0  0  0  0  0  0
  -16.2950  -18.6450   -2.6870 N   0  0  2  0  0  0
  -16.4840  -18.4850   -4.1340 C   0  0  0  0  0  0
  -15.2970  -18.8430   -5.0100 C   0  0  0  0  0  0
  -16.6400  -18.9460   -8.4410 C   0  0  0  0  0  0
  -15.1740  -19.2430   -8.5910 C   0  0  0  0  0  0
  -14.4120  -19.5530   -9.6980 C   0  0  0  0  0  0
  -12.5370  -19.7120   -8.4210 C   0  0  0  0  0  0
  -13.1920  -19.4140   -7.2590 C   0  0  0  0  0  0
  -15.3910  -17.7610   -0.5850 C   0  0  0  0  0  0
  -14.2060  -19.1140   -4.5200 O   0  0  0  0  0  0
  -15.5010  -18.8470   -6.3700 N   0  0  0  0  0  0
  -16.7530  -18.4000   -7.0340 C   0  0  0  0  0  0
  -13.1010  -19.7860   -9.6150 N   0  0  0  0  0  0
  -10.8280  -20.0240   -8.3680 Cl  0  0  0  0  0  0
  -14.5440  -19.1750   -7.3570 C   0  0  0  0  0  0
  -15.3800  -17.6570   -2.1000 C   0  0  0  0  0  0
  -15.0380  -19.1430   -0.1660 N   0  3  0  0  0  0
  -16.1430  -22.3242   -0.7834 H   0  0  0  0  0  0
  -15.5219  -21.6396    0.7567 H   0  0  0  0  0  0
  -14.4499  -21.7327   -0.6817 H   0  0  0  0  0  0
  -16.9701  -20.0461   -0.4091 H   0  0  0  0  0  0
  -14.9242  -20.2255   -2.6751 H   0  0  0  0  0  0
  -16.6539  -20.7055   -2.7392 H   0  0  0  0  0  0
  -17.3120  -19.1271   -4.4688 H   0  0  0  0  0  0
  -16.7205  -17.4345   -4.3590 H   0  0  0  0  0  0
  -16.9445  -18.2099   -9.1996 H   0  0  0  0  0  0
  -17.2175  -19.8723   -8.5764 H   0  0  0  0  0  0
  -14.8968  -19.6095  -10.6726 H   0  0  0  0  0  0
  -12.6702  -19.3679   -6.3031 H   0  0  0  0  0  0
  -14.6578  -17.0574   -0.1639 H   0  0  0  0  0  0
  -16.3944  -17.5143   -0.2078 H   0  0  0  0  0  0
  -16.8323  -17.3035   -7.0715 H   0  0  0  0  0  0
  -17.6489  -18.8161   -6.5501 H   0  0  0  0  0  0
  -14.3586  -17.8411   -2.4646 H   0  0  0  0  0  0
  -15.6967  -16.6449   -2.3922 H   0  0  0  0  0  0
  -15.1082  -19.1909    0.9307 H   0  0  0  0  0  0
  -14.0000  -19.3342   -0.4757 H   0  0  0  0  0  0
  1  2  1  0  0  0
  1 21  1  0  0  0
  1 22  1  0  0  0
  1 23  1  0  0  0
  2  3  1  0  0  0
  2 20  1  0  0  0
  2 24  1  0  0  0
  3  4  1  0  0  0
  3 25  1  0  0  0
  3 26  1  0  0  0
  4  5  1  0  0  0
  4 19  1  0  0  0
  5  6  1  0  0  0
  5 27  1  0  0  0
  5 28  1  0  0  0
  6 13  2  0  0  0
  6 14  1  0  0  0
  7  8  1  0  0  0
  7 15  1  0  0  0
  7 29  1  0  0  0
  7 30  1  0  0  0
  8  9  2  0  0  0
  8 18  1  0  0  0
  9 16  1  0  0  0
  9 31  1  0  0  0
 10 11  1  0  0  0
 10 16  2  0  0  0
 10 17  1  0  0  0
 11 18  2  0  0  0
 11 32  1  0  0  0
 12 19  1  0  0  0
 12 20  1  0  0  0
 12 33  1  0  0  0
 12 34  1  0  0  0
 14 15  1  0  0  0
 14 18  1  0  0  0
 15 35  1  0  0  0
 15 36  1  0  0  0
 19 37  1  0  0  0
 19 38  1  0  0  0
 20 39  1  0  0  0
 20 40  1  0  0  0
M  CHG  1  20   1
M  END
> <s_m_source_file>
../5c7d_ligand.sdf

> <i_m_source_file_index>
1

> <s_epik_input>
W0NIM11bQ0BASF0xW0NIMl1bTkBASCtdKFtDSDJdW0NIMl1bTkgyK10xKVtDSDJdQyg9TylOKFtDSDJdW0NIMl0yKWMoYzIzKVtjSF1jKENsKW5bY0hdMw==

> <s_epik_cmdline>
J2VwaWtfYXBwJywgJy1pbWFlJywgJ2xpZ2FuZF9wcm8ubWFlJywgJy1vbWFlJywgJ2xpZ2FuZF9wcmVwLm1hZScsICctbXMnLCAnMScsICctcGgnLCAnNycsICctcGh0JywgJzAuNScsICctbnQn

> <r_lp_tautomer_probability>
1

> <r_epik_Ionization_Penalty>
  0.0089

> <r_epik_Ionization_Penalty_Charging>
  0.0055

> <r_epik_Ionization_Penalty_Neutral>
  0.0034

> <r_epik_State_Penalty>
 -0.0000

> <r_epik_Charging_Adjusted_Penalty>
0.00552932860584093

> <i_epik_Tot_Q>
1

> <i_epik_Tot_abs_Q>
1

$$$$
