5c7e_ligand
                    3D
 Schrodinger Suite 2020-3.
137136  0  0  1  0            999 V2000
  -43.7430   95.2220   50.4760 N   0  3  0  0  0  0
  -44.7230   95.2920   49.3990 C   0  0  2  0  0  0
  -45.8980   94.3460   49.6540 C   0  0  0  0  0  0
  -45.7780   93.3880   50.4240 O   0  0  0  0  0  0
  -44.0690   94.9810   48.0450 C   0  0  0  0  0  0
  -43.2830   93.8000   48.0860 O   0  0  0  0  0  0
  -47.0390   94.6460   49.0360 N   0  0  0  0  0  0
  -48.2670   93.9010   49.2750 C   0  0  2  0  0  0
  -48.0480   92.4520   48.8730 C   0  0  0  0  0  0
  -47.4020   92.1750   47.8570 O   0  0  0  0  0  0
  -49.4390   94.4980   48.4960 C   0  0  0  0  0  0
  -48.5520   91.5300   49.6860 N   0  0  0  0  0  0
  -48.3650   90.1160   49.4090 C   0  0  2  0  0  0
  -49.1270   89.8230   48.1350 C   0  0  0  0  0  0
  -49.9640   90.6170   47.6950 O   0  0  0  0  0  0
  -48.8940   89.1920   50.5460 C   0  0  2  0  0  0
  -49.4130   89.9810   51.6230 O   0  0  0  0  0  0
  -47.8020   88.2640   51.0680 C   0  0  0  0  0  0
  -48.8790   88.6500   47.5790 N   0  0  0  0  0  0
  -49.5730   88.2220   46.3820 C   0  0  2  0  0  0
  -50.7580   87.4210   46.8730 C   0  0  0  0  0  0
  -50.5900   86.4170   47.5580 O   0  0  0  0  0  0
  -48.6540   87.3680   45.5210 C   0  0  0  0  0  0
  -49.2630   86.0780   45.0210 C   0  0  0  0  0  0
  -48.2170   85.1280   44.4910 C   0  0  0  0  0  0
  -47.1130   85.6020   44.1580 O   0  0  0  0  0  0
  -48.4590   83.8990   44.5030 O   0  5  0  0  0  0
  -51.9560   87.9490   46.6790 N   0  0  0  0  0  0
  -53.1360   87.2270   47.1140 C   0  0  2  0  0  0
  -53.8090   86.4950   45.9670 C   0  0  0  0  0  0
  -54.8940   85.9340   46.1500 O   0  0  0  0  0  0
  -54.1190   88.1600   47.8180 C   0  0  0  0  0  0
  -54.4530   87.6080   49.2120 C   0  0  0  0  0  0
  -53.1950   87.4520   50.0400 C   0  0  0  0  0  0
  -55.4590   88.4640   49.9490 C   0  0  0  0  0  0
  -53.1550   86.4570   44.8050 N   0  0  0  0  0  0
  -53.8010   85.9060   43.6180 C   0  0  2  0  0  0
  -53.6840   84.4020   43.5910 C   0  0  0  0  0  0
  -52.9940   83.8140   44.4100 O   0  0  0  0  0  0
  -53.1660   86.4810   42.3540 C   0  0  0  0  0  0
  -54.3980   83.7720   42.6740 N   0  0  0  0  0  0
  -54.3910   82.3260   42.5930 C   0  0  2  0  0  0
  -53.9250   81.9660   41.2040 C   0  0  0  0  0  0
  -54.6840   82.1230   40.2460 O   0  0  0  0  0  0
  -55.7770   81.7650   42.8940 C   0  0  0  0  0  0
  -56.2960   82.0440   44.2940 C   0  0  0  0  0  0
  -57.7020   81.5270   44.4210 C   0  0  0  0  0  0
  -55.3940   81.3670   45.3140 C   0  0  0  0  0  0
  -52.7300   81.4170   41.0790 N   0  0  0  0  0  0
  -52.2120   81.0600   39.7670 C   0  0  2  0  0  0
  -51.1420   80.0200   39.9870 C   0  0  0  0  0  0
  -50.8700   79.6730   41.1300 O   0  0  0  0  0  0
  -51.6570   82.2860   39.0390 C   0  0  0  0  0  0
  -50.5310   79.5150   38.9220 N   0  0  0  0  0  0
  -49.5610   78.4440   39.1040 C   0  0  2  0  0  0
  -48.2810   78.8860   39.8210 C   0  0  0  0  0  0
  -47.5210   78.0420   40.2940 O   0  0  0  0  0  0
  -49.2170   77.7970   37.7580 C   0  0  0  0  0  0
  -50.3780   77.2650   36.9140 C   0  0  0  0  0  0
  -50.2600   77.6680   35.4570 C   0  0  0  0  0  0
  -50.4220   75.7510   37.0290 C   0  0  0  0  0  0
  -48.0650   80.1920   39.9550 N   0  0  0  0  0  0
  -46.9280   80.6970   40.7160 C   0  0  0  0  0  0
  -47.0760   80.5890   42.2280 C   0  0  0  0  0  0
  -46.1640   80.9260   42.9880 O   0  0  0  0  0  0
  -48.1130   80.1610   42.7430 O   0  5  0  0  0  0
  -44.2342   95.4481   51.4339 H   0  0  0  0  0  0
  -42.9432   95.9545   50.2922 H   0  0  0  0  0  0
  -43.3122   94.2106   50.5145 H   0  0  0  0  0  0
  -45.0825   96.3314   49.4162 H   0  0  0  0  0  0
  -44.8506   94.8441   47.2831 H   0  0  0  0  0  0
  -43.4149   95.8159   47.7533 H   0  0  0  0  0  0
  -42.7560   93.4584   47.1829 H   0  0  0  0  0  0
  -47.0348   95.4862   48.3260 H   0  0  0  0  0  0
  -48.4756   93.9822   50.3520 H   0  0  0  0  0  0
  -49.5843   95.5457   48.7980 H   0  0  0  0  0  0
  -50.3525   93.9243   48.7112 H   0  0  0  0  0  0
  -49.2235   94.4536   47.4182 H   0  0  0  0  0  0
  -49.1156   91.8462   50.5762 H   0  0  0  0  0  0
  -47.2794   89.9713   49.3062 H   0  0  0  0  0  0
  -49.7419   88.5880   50.1905 H   0  0  0  0  0  0
  -50.2131   90.7117   51.4336 H   0  0  0  0  0  0
  -47.4063   87.6602   50.2380 H   0  0  0  0  0  0
  -48.2224   87.5994   51.8371 H   0  0  0  0  0  0
  -46.9897   88.8632   51.5053 H   0  0  0  0  0  0
  -48.1282   87.9940   48.0437 H   0  0  0  0  0  0
  -49.8786   89.0982   45.7914 H   0  0  0  0  0  0
  -48.3505   87.9387   44.6309 H   0  0  0  0  0  0
  -47.7613   87.0908   46.1008 H   0  0  0  0  0  0
  -49.7940   85.5795   45.8454 H   0  0  0  0  0  0
  -49.9712   86.2976   44.2084 H   0  0  0  0  0  0
  -52.0598   88.9294   46.1911 H   0  0  0  0  0  0
  -52.7510   86.4804   47.8242 H   0  0  0  0  0  0
  -53.6680   89.1580   47.9205 H   0  0  0  0  0  0
  -55.0427   88.2342   47.2253 H   0  0  0  0  0  0
  -54.9158   86.6193   49.0770 H   0  0  0  0  0  0
  -52.4718   86.8283   49.4942 H   0  0  0  0  0  0
  -53.4438   86.9719   50.9980 H   0  0  0  0  0  0
  -52.7556   88.4425   50.2294 H   0  0  0  0  0  0
  -56.3676   88.5700   49.3381 H   0  0  0  0  0  0
  -55.0264   89.4575   50.1381 H   0  0  0  0  0  0
  -55.7146   87.9870   50.9067 H   0  0  0  0  0  0
  -52.1265   86.8422   44.7427 H   0  0  0  0  0  0
  -54.8601   86.1924   43.6968 H   0  0  0  0  0  0
  -53.2486   87.5778   42.3685 H   0  0  0  0  0  0
  -53.6870   86.0857   41.4695 H   0  0  0  0  0  0
  -52.1050   86.1937   42.3134 H   0  0  0  0  0  0
  -55.0024   84.3595   41.9672 H   0  0  0  0  0  0
  -53.6954   81.9321   43.3486 H   0  0  0  0  0  0
  -56.5079   82.1995   42.1961 H   0  0  0  0  0  0
  -55.7633   80.6714   42.7767 H   0  0  0  0  0  0
  -56.3070   83.1281   44.4802 H   0  0  0  0  0  0
  -58.3438   82.0239   43.6786 H   0  0  0  0  0  0
  -58.0802   81.7376   45.4323 H   0  0  0  0  0  0
  -57.7107   80.4412   44.2450 H   0  0  0  0  0  0
  -54.3693   81.7534   45.2109 H   0  0  0  0  0  0
  -55.3954   80.2807   45.1408 H   0  0  0  0  0  0
  -55.7649   81.5772   46.3280 H   0  0  0  0  0  0
  -52.1251   81.2302   41.9786 H   0  0  0  0  0  0
  -53.0393   80.6542   39.1662 H   0  0  0  0  0  0
  -52.4614   83.0224   38.8953 H   0  0  0  0  0  0
  -51.2590   81.9819   38.0597 H   0  0  0  0  0  0
  -50.8516   82.7351   39.6387 H   0  0  0  0  0  0
  -50.7485   79.8944   37.9127 H   0  0  0  0  0  0
  -50.0920   77.7409   39.7625 H   0  0  0  0  0  0
  -48.7045   78.5309   37.1187 H   0  0  0  0  0  0
  -48.5578   76.9323   37.9246 H   0  0  0  0  0  0
  -51.3136   77.7036   37.2913 H   0  0  0  0  0  0
  -50.2287   78.7650   35.3814 H   0  0  0  0  0  0
  -51.1283   77.2866   34.8996 H   0  0  0  0  0  0
  -49.3374   77.2447   35.0331 H   0  0  0  0  0  0
  -50.5076   75.4661   38.0880 H   0  0  0  0  0  0
  -49.4997   75.3244   36.6079 H   0  0  0  0  0  0
  -51.2906   75.3663   36.4744 H   0  0  0  0  0  0
  -48.7638   80.8952   39.4784 H   0  0  0  0  0  0
  -46.0245   80.1318   40.4437 H   0  0  0  0  0  0
  -46.7772   81.7622   40.4865 H   0  0  0  0  0  0
  1  2  1  0  0  0
  1 67  1  0  0  0
  1 68  1  0  0  0
  1 69  1  0  0  0
  2  3  1  0  0  0
  2  5  1  0  0  0
  2 70  1  0  0  0
  3  4  2  0  0  0
  3  7  1  0  0  0
  5  6  1  0  0  0
  5 71  1  0  0  0
  5 72  1  0  0  0
  6 73  1  0  0  0
  7  8  1  0  0  0
  7 74  1  0  0  0
  8  9  1  0  0  0
  8 11  1  0  0  0
  8 75  1  0  0  0
  9 10  2  0  0  0
  9 12  1  0  0  0
 11 76  1  0  0  0
 11 77  1  0  0  0
 11 78  1  0  0  0
 12 13  1  0  0  0
 12 79  1  0  0  0
 13 14  1  0  0  0
 13 16  1  0  0  0
 13 80  1  0  0  0
 14 15  2  0  0  0
 14 19  1  0  0  0
 16 17  1  0  0  0
 16 18  1  0  0  0
 16 81  1  0  0  0
 17 82  1  0  0  0
 18 83  1  0  0  0
 18 84  1  0  0  0
 18 85  1  0  0  0
 19 20  1  0  0  0
 19 86  1  0  0  0
 20 21  1  0  0  0
 20 23  1  0  0  0
 20 87  1  0  0  0
 21 22  2  0  0  0
 21 28  1  0  0  0
 23 24  1  0  0  0
 23 88  1  0  0  0
 23 89  1  0  0  0
 24 25  1  0  0  0
 24 90  1  0  0  0
 24 91  1  0  0  0
 25 26  2  0  0  0
 25 27  1  0  0  0
 28 29  1  0  0  0
 28 92  1  0  0  0
 29 30  1  0  0  0
 29 32  1  0  0  0
 29 93  1  0  0  0
 30 31  2  0  0  0
 30 36  1  0  0  0
 32 33  1  0  0  0
 32 94  1  0  0  0
 32 95  1  0  0  0
 33 34  1  0  0  0
 33 35  1  0  0  0
 33 96  1  0  0  0
 34 97  1  0  0  0
 34 98  1  0  0  0
 34 99  1  0  0  0
 35100  1  0  0  0
 35101  1  0  0  0
 35102  1  0  0  0
 36 37  1  0  0  0
 36103  1  0  0  0
 37 38  1  0  0  0
 37 40  1  0  0  0
 37104  1  0  0  0
 38 39  2  0  0  0
 38 41  1  0  0  0
 40105  1  0  0  0
 40106  1  0  0  0
 40107  1  0  0  0
 41 42  1  0  0  0
 41108  1  0  0  0
 42 43  1  0  0  0
 42 45  1  0  0  0
 42109  1  0  0  0
 43 44  2  0  0  0
 43 49  1  0  0  0
 45 46  1  0  0  0
 45110  1  0  0  0
 45111  1  0  0  0
 46 47  1  0  0  0
 46 48  1  0  0  0
 46112  1  0  0  0
 47113  1  0  0  0
 47114  1  0  0  0
 47115  1  0  0  0
 48116  1  0  0  0
 48117  1  0  0  0
 48118  1  0  0  0
 49 50  1  0  0  0
 49119  1  0  0  0
 50 51  1  0  0  0
 50 53  1  0  0  0
 50120  1  0  0  0
 51 52  2  0  0  0
 51 54  1  0  0  0
 53121  1  0  0  0
 53122  1  0  0  0
 53123  1  0  0  0
 54 55  1  0  0  0
 54124  1  0  0  0
 55 56  1  0  0  0
 55 58  1  0  0  0
 55125  1  0  0  0
 56 57  2  0  0  0
 56 62  1  0  0  0
 58 59  1  0  0  0
 58126  1  0  0  0
 58127  1  0  0  0
 59 60  1  0  0  0
 59 61  1  0  0  0
 59128  1  0  0  0
 60129  1  0  0  0
 60130  1  0  0  0
 60131  1  0  0  0
 61132  1  0  0  0
 61133  1  0  0  0
 61134  1  0  0  0
 62 63  1  0  0  0
 62135  1  0  0  0
 63 64  1  0  0  0
 63136  1  0  0  0
 63137  1  0  0  0
 64 65  2  0  0  0
 64 66  1  0  0  0
M  CHG  3   1   1  27  -1  66  -1
M  END
> <s_m_source_file>
../5c7e_ligand.sdf

> <i_m_source_file_index>
1

> <s_epik_input>
W09IXVtDSDJdW0NASF0oW05IMytdKUMoPU8pW05IXVtDQEBIXShbQ0gzXSlDKD1PKVtOSF1bQ0BASF0oW0NASF0oW09IXSlbQ0gzXSlDKD1PKVtOSF1bQ0BASF0oW0NIMl1bQ0gyXUMoPU8pW09IXSlDKD1PKVtOSF1bQ0BASF0oW0NIMl1bQ0hdKFtDSDNdKVtDSDNdKUMoPU8pW05IXVtDQEBIXShbQ0gzXSlDKD1PKVtOSF1bQ0BASF0oW0NIMl1bQ0hdKFtDSDNdKVtDSDNdKUMoPU8pW05IXVtDQEBIXShbQ0gzXSlDKD1PKVtOSF1bQ0BASF0oW0NIMl1bQ0hdKFtDSDNdKVtDSDNdKUMoPU8pW05IXVtDSDJdQyg9TylbT0hd

> <s_epik_cmdline>
J2VwaWtfYXBwJywgJy1pbWFlJywgJ2xpZ2FuZF9wcm8ubWFlJywgJy1vbWFlJywgJ2xpZ2FuZF9wcmVwLm1hZScsICctbXMnLCAnMScsICctcGgnLCAnNycsICctcGh0JywgJzAuNScsICctbnQn

> <r_epik_Ionization_Penalty>
  0.1522

> <r_epik_Ionization_Penalty_Charging>
  0.1522

> <r_epik_Ionization_Penalty_Neutral>
  0.0000

> <r_epik_State_Penalty>
  0.1395

> <r_epik_Charging_Adjusted_Penalty>
0.291692268069082

> <i_epik_Tot_Q>
-1

> <i_epik_Tot_abs_Q>
3

$$$$
