5c7f_ligand
                    3D
 Schrodinger Suite 2020-3.
141141  0  0  1  0            999 V2000
   32.2540  -72.6330   22.9660 N   0  3  0  0  0  0
   31.3070  -71.6230   22.5240 C   0  0  2  0  0  0
   31.1080  -70.5680   23.6020 C   0  0  0  0  0  0
   29.9970  -70.1920   23.9640 O   0  0  0  0  0  0
   29.9430  -72.2530   22.0840 C   0  0  2  0  0  0
   29.0650  -71.2420   21.5570 O   0  0  0  0  0  0
   29.2700  -72.9950   23.2430 C   0  0  0  0  0  0
   32.2200  -70.1010   24.1290 N   0  0  0  0  0  0
   32.2170  -68.9420   24.9790 C   0  0  2  0  0  0
   32.4210  -67.8120   23.9940 C   0  0  0  0  0  0
   31.6720  -66.8190   24.0120 O   0  0  0  0  0  0
   33.2740  -69.0080   26.0810 C   0  0  0  0  0  0
   32.8510  -69.9890   27.2090 C   0  0  0  0  0  0
   31.3950  -69.8050   27.6750 C   0  0  0  0  0  0
   30.8960  -68.6560   27.6930 O   0  0  0  0  0  0
   30.7510  -70.8200   28.0290 O   0  5  0  0  0  0
   33.4820  -67.8840   23.2150 N   0  0  0  0  0  0
   33.6490  -66.9940   22.0700 C   0  0  2  0  0  0
   33.2900  -67.6430   20.7060 C   0  0  0  0  0  0
   33.7200  -67.1490   19.6590 O   0  0  0  0  0  0
   35.0670  -66.4740   22.0420 C   0  0  0  0  0  0
   36.0610  -67.5940   21.8690 C   0  0  0  0  0  0
   36.4700  -67.8780   20.4250 C   0  0  0  0  0  0
   37.1280  -67.0760   22.6530 C   0  0  0  0  0  0
   32.6270  -68.7890   20.6870 N   0  0  0  0  0  0
   32.2440  -69.3860   19.4030 C   0  0  2  0  0  0
   31.0230  -68.6730   18.8460 C   0  0  0  0  0  0
   30.1240  -68.2840   19.6040 O   0  0  0  0  0  0
   31.9530  -70.8760   19.4990 C   0  0  0  0  0  0
   32.8100  -71.7290   18.6060 C   0  0  0  0  0  0
   34.2750  -71.4330   18.8230 C   0  0  0  0  0  0
   35.0380  -71.7580   17.6260 N   0  0  0  0  0  0
   36.0520  -71.0340   17.1630 C   0  0  0  0  0  0
   36.4370  -69.9340   17.8020 N   0  0  0  0  0  0
   36.6830  -71.4100   16.0600 N   0  3  0  0  0  0
   31.0000  -68.5050   17.5300 N   0  0  0  0  0  0
   29.9040  -67.8070   16.8880 C   0  0  2  0  0  0
   28.7740  -68.7430   16.5080 C   0  0  0  0  0  0
   28.9630  -69.7100   15.7630 O   0  0  0  0  0  0
   30.3560  -67.0390   15.6480 C   0  0  0  0  0  0
   31.5490  -66.0990   15.7890 C   0  0  0  0  0  0
   31.5850  -65.1840   14.5720 C   0  0  0  0  0  0
   31.5070  -65.3180   17.0790 C   0  0  0  0  0  0
   27.6010  -68.4580   17.0470 N   0  0  0  0  0  0
   26.4360  -69.2020   16.6640 C   0  0  0  0  0  0
   25.2680  -68.2540   16.6410 C   0  0  0  0  0  0
   25.4050  -67.0640   16.9330 O   0  0  0  0  0  0
   24.1030  -68.8040   16.3510 N   0  0  0  0  0  0
   22.8490  -68.0700   16.4160 C   0  0  2  0  0  0
   21.8190  -68.7200   17.3540 C   0  0  0  0  0  0
   21.3310  -69.8140   17.0710 O   0  0  0  0  0  0
   22.2360  -67.9000   15.0170 C   0  0  0  0  0  0
   22.2070  -68.9740   13.9120 C   0  0  0  0  0  0
   22.6570  -70.3610   14.3690 C   0  0  0  0  0  0
   20.8160  -69.0610   13.2840 C   0  0  0  0  0  0
   21.4830  -68.0300   18.4590 N   0  0  0  0  0  0
   22.3230  -67.0320   19.1190 C   0  0  2  0  0  0
   23.1980  -67.4150   20.3210 C   0  0  0  0  0  0
   24.4150  -67.5140   20.1980 O   0  0  0  0  0  0
   21.2820  -66.0230   19.5730 C   0  0  0  0  0  0
   20.0710  -66.8990   19.9330 C   0  0  0  0  0  0
   20.2480  -68.2420   19.2230 C   0  0  0  0  0  0
   22.5530  -67.7900   21.4290 N   0  0  0  0  0  0
   23.2400  -67.9190   22.7090 C   0  0  0  0  0  0
   23.8090  -66.5770   23.1780 C   0  0  0  0  0  0
   23.9440  -66.3160   24.3870 O   0  5  0  0  0  0
   24.1560  -65.7000   22.3670 O   0  0  0  0  0  0
   33.1949  -72.1477   23.2647 H   0  0  0  0  0  0
   32.4495  -73.3371   22.1438 H   0  0  0  0  0  0
   31.8343  -73.1786   23.8240 H   0  0  0  0  0  0
   31.8001  -71.1547   21.6594 H   0  0  0  0  0  0
   30.0887  -72.9536   21.2486 H   0  0  0  0  0  0
   29.3928  -70.6127   20.7165 H   0  0  0  0  0  0
   29.9541  -73.7629   23.6332 H   0  0  0  0  0  0
   28.3469  -73.4741   22.8848 H   0  0  0  0  0  0
   29.0258  -72.2807   24.0431 H   0  0  0  0  0  0
   33.1654  -70.6175   23.9066 H   0  0  0  0  0  0
   31.2674  -68.8706   25.5297 H   0  0  0  0  0  0
   34.2270  -69.3543   25.6546 H   0  0  0  0  0  0
   33.4100  -68.0082   26.5190 H   0  0  0  0  0  0
   32.9522  -71.0244   26.8515 H   0  0  0  0  0  0
   33.4972  -69.8393   28.0865 H   0  0  0  0  0  0
   34.2514  -68.6360   23.4439 H   0  0  0  0  0  0
   32.9362  -66.1797   22.2674 H   0  0  0  0  0  0
   35.1835  -65.7717   21.2034 H   0  0  0  0  0  0
   35.2863  -65.9560   22.9873 H   0  0  0  0  0  0
   35.7116  -68.5755   22.2220 H   0  0  0  0  0  0
   35.6067  -68.2750   19.8707 H   0  0  0  0  0  0
   37.2846  -68.6171   20.4133 H   0  0  0  0  0  0
   36.8132  -66.9465   19.9512 H   0  0  0  0  0  0
   36.7741  -66.8923   23.6782 H   0  0  0  0  0  0
   37.4819  -66.1322   22.2126 H   0  0  0  0  0  0
   37.9534  -67.8028   22.6747 H   0  0  0  0  0  0
   32.3633  -69.2932   21.6284 H   0  0  0  0  0  0
   33.1256  -69.2454   18.7603 H   0  0  0  0  0  0
   32.1224  -71.2169   20.5310 H   0  0  0  0  0  0
   30.9063  -71.0640   19.2179 H   0  0  0  0  0  0
   32.6270  -72.7908   18.8275 H   0  0  0  0  0  0
   32.5599  -71.5254   17.5543 H   0  0  0  0  0  0
   34.4032  -70.3648   19.0520 H   0  0  0  0  0  0
   34.6503  -72.0357   19.6632 H   0  0  0  0  0  0
   34.7871  -72.6547   17.0404 H   0  0  0  0  0  0
   35.9155  -69.6189   18.7178 H   0  0  0  0  0  0
   37.2771  -69.3387   17.4150 H   0  0  0  0  0  0
   36.3670  -72.3198   15.5286 H   0  0  0  0  0  0
   31.8277  -68.9038   16.9251 H   0  0  0  0  0  0
   29.5688  -67.1125   17.6724 H   0  0  0  0  0  0
   30.6423  -67.7510   14.8599 H   0  0  0  0  0  0
   29.5317  -66.4057   15.2882 H   0  0  0  0  0  0
   32.4784  -66.6850   15.8417 H   0  0  0  0  0  0
   31.6149  -65.7928   13.6563 H   0  0  0  0  0  0
   32.4807  -64.5472   14.6184 H   0  0  0  0  0  0
   30.6853  -64.5512   14.5623 H   0  0  0  0  0  0
   31.4820  -66.0155   17.9292 H   0  0  0  0  0  0
   30.6065  -64.6865   17.0961 H   0  0  0  0  0  0
   32.4019  -64.6826   17.1522 H   0  0  0  0  0  0
   27.5184  -67.6503   17.7892 H   0  0  0  0  0  0
   26.5914  -69.6386   15.6664 H   0  0  0  0  0  0
   26.2587  -70.0066   17.3928 H   0  0  0  0  0  0
   24.1060  -69.8621   16.0504 H   0  0  0  0  0  0
   23.1593  -67.1017   16.8356 H   0  0  0  0  0  0
   21.1643  -67.6707   15.1117 H   0  0  0  0  0  0
   22.7423  -67.0763   14.4925 H   0  0  0  0  0  0
   22.9418  -68.6517   13.1595 H   0  0  0  0  0  0
   23.6580  -70.2917   14.8197 H   0  0  0  0  0  0
   22.6907  -71.0392   13.5036 H   0  0  0  0  0  0
   21.9462  -70.7505   15.1126 H   0  0  0  0  0  0
   20.4980  -68.0599   12.9573 H   0  0  0  0  0  0
   20.1023  -69.4485   14.0260 H   0  0  0  0  0  0
   20.8468  -69.7371   12.4169 H   0  0  0  0  0  0
   23.0790  -66.7524   18.3705 H   0  0  0  0  0  0
   21.6669  -65.4631   20.4381 H   0  0  0  0  0  0
   21.0653  -65.3247   18.7512 H   0  0  0  0  0  0
   20.0333  -67.0424   21.0230 H   0  0  0  0  0  0
   19.1478  -66.4048   19.5961 H   0  0  0  0  0  0
   19.4243  -68.4735   18.5316 H   0  0  0  0  0  0
   20.3878  -69.0809   19.9207 H   0  0  0  0  0  0
   21.4762  -68.0036   21.3587 H   0  0  0  0  0  0
   22.5332  -68.2824   23.4695 H   0  0  0  0  0  0
   24.0704  -68.6335   22.6091 H   0  0  0  0  0  0
   37.5227  -70.8123   15.6758 H   0  0  0  0  0  0
  1  2  1  0  0  0
  1 68  1  0  0  0
  1 69  1  0  0  0
  1 70  1  0  0  0
  2  3  1  0  0  0
  2  5  1  0  0  0
  2 71  1  0  0  0
  3  4  2  0  0  0
  3  8  1  0  0  0
  5  6  1  0  0  0
  5  7  1  0  0  0
  5 72  1  0  0  0
  6 73  1  0  0  0
  7 74  1  0  0  0
  7 75  1  0  0  0
  7 76  1  0  0  0
  8  9  1  0  0  0
  8 77  1  0  0  0
  9 10  1  0  0  0
  9 12  1  0  0  0
  9 78  1  0  0  0
 10 11  2  0  0  0
 10 17  1  0  0  0
 12 13  1  0  0  0
 12 79  1  0  0  0
 12 80  1  0  0  0
 13 14  1  0  0  0
 13 81  1  0  0  0
 13 82  1  0  0  0
 14 15  2  0  0  0
 14 16  1  0  0  0
 17 18  1  0  0  0
 17 83  1  0  0  0
 18 19  1  0  0  0
 18 21  1  0  0  0
 18 84  1  0  0  0
 19 20  2  0  0  0
 19 25  1  0  0  0
 21 22  1  0  0  0
 21 85  1  0  0  0
 21 86  1  0  0  0
 22 23  1  0  0  0
 22 24  1  0  0  0
 22 87  1  0  0  0
 23 88  1  0  0  0
 23 89  1  0  0  0
 23 90  1  0  0  0
 24 91  1  0  0  0
 24 92  1  0  0  0
 24 93  1  0  0  0
 25 26  1  0  0  0
 25 94  1  0  0  0
 26 27  1  0  0  0
 26 29  1  0  0  0
 26 95  1  0  0  0
 27 28  2  0  0  0
 27 36  1  0  0  0
 29 30  1  0  0  0
 29 96  1  0  0  0
 29 97  1  0  0  0
 30 31  1  0  0  0
 30 98  1  0  0  0
 30 99  1  0  0  0
 31 32  1  0  0  0
 31100  1  0  0  0
 31101  1  0  0  0
 32 33  1  0  0  0
 32102  1  0  0  0
 33 34  1  0  0  0
 33 35  2  0  0  0
 34103  1  0  0  0
 34104  1  0  0  0
 35105  1  0  0  0
 35141  1  0  0  0
 36 37  1  0  0  0
 36106  1  0  0  0
 37 38  1  0  0  0
 37 40  1  0  0  0
 37107  1  0  0  0
 38 39  2  0  0  0
 38 44  1  0  0  0
 40 41  1  0  0  0
 40108  1  0  0  0
 40109  1  0  0  0
 41 42  1  0  0  0
 41 43  1  0  0  0
 41110  1  0  0  0
 42111  1  0  0  0
 42112  1  0  0  0
 42113  1  0  0  0
 43114  1  0  0  0
 43115  1  0  0  0
 43116  1  0  0  0
 44 45  1  0  0  0
 44117  1  0  0  0
 45 46  1  0  0  0
 45118  1  0  0  0
 45119  1  0  0  0
 46 47  2  0  0  0
 46 48  1  0  0  0
 48 49  1  0  0  0
 48120  1  0  0  0
 49 50  1  0  0  0
 49 52  1  0  0  0
 49121  1  0  0  0
 50 51  2  0  0  0
 50 56  1  0  0  0
 52 53  1  0  0  0
 52122  1  0  0  0
 52123  1  0  0  0
 53 54  1  0  0  0
 53 55  1  0  0  0
 53124  1  0  0  0
 54125  1  0  0  0
 54126  1  0  0  0
 54127  1  0  0  0
 55128  1  0  0  0
 55129  1  0  0  0
 55130  1  0  0  0
 56 57  1  0  0  0
 56 62  1  0  0  0
 57 58  1  0  0  0
 57 60  1  0  0  0
 57131  1  0  0  0
 58 59  2  0  0  0
 58 63  1  0  0  0
 60 61  1  0  0  0
 60132  1  0  0  0
 60133  1  0  0  0
 61 62  1  0  0  0
 61134  1  0  0  0
 61135  1  0  0  0
 62136  1  0  0  0
 62137  1  0  0  0
 63 64  1  0  0  0
 63138  1  0  0  0
 64 65  1  0  0  0
 64139  1  0  0  0
 64140  1  0  0  0
 65 66  1  0  0  0
 65 67  2  0  0  0
M  CHG  4   1   1  16  -1  35   1  66  -1
M  END
> <s_m_source_file>
../5c7f_ligand.sdf

> <i_m_source_file_index>
1

> <s_epik_input>
W09IXVtDQEhdKFtDSDNdKVtDQEhdKFtOSDMrXSlDKD1PKVtOSF1bQ0BASF0oW0NIMl1bQ0gyXUMoPU8pW09IXSlDKD1PKVtOSF1bQ0BASF0oW0NIMl1bQ0hdKFtDSDNdKVtDSDNdKUMoPU8pW05IXVtDQEBIXShbQ0gyXVtDSDJdW0NIMl1bTkhdL0MoW05IMl0pPU5cW0hdKUMoPU8pW05IXVtDQEBIXShbQ0gyXVtDSF0oW0NIM10pW0NIM10pQyg9TylbTkhdW0NIMl1DKD1PKVtOSF1bQ0BASF0oW0NIMl1bQ0hdKFtDSDNdKVtDSDNdKUMoPU8pTjFbQ0BASF0oW0NIMl1bQ0gyXVtDSDJdMSlDKD1PKVtOSF1bQ0gyXUMoPU8pW09IXQ==

> <s_epik_cmdline>
J2VwaWtfYXBwJywgJy1pbWFlJywgJ2xpZ2FuZF9wcm8ubWFlJywgJy1vbWFlJywgJ2xpZ2FuZF9wcmVwLm1hZScsICctbXMnLCAnMScsICctcGgnLCAnNycsICctcGh0JywgJzAuNScsICctbnQn

> <r_epik_Ionization_Penalty>
  0.0788

> <r_epik_Ionization_Penalty_Charging>
  0.0788

> <r_epik_Ionization_Penalty_Neutral>
  0.0000

> <r_epik_State_Penalty>
  0.0679

> <r_epik_Charging_Adjusted_Penalty>
0.146663903993085

> <i_epik_Tot_Q>
0

> <i_epik_Tot_abs_Q>
4

> <s_epik_Chemistry_Notes>
This compound has an imine and may undergo hydrolysis.

$$$$
