5c83_ligand
                    3D
 Schrodinger Suite 2020-3.
 66 69  0  0  1  0            999 V2000
  -14.3900  -15.6340   -4.3260 C   0  0  0  0  0  0
  -16.2020  -16.3320   -2.9190 C   0  0  0  0  0  0
  -15.5290  -17.7750   -0.9880 C   0  0  0  0  0  0
  -15.9490  -20.2240   -1.0490 C   0  0  1  0  0  0
  -15.4630  -21.5570   -0.4980 C   0  0  0  0  0  0
  -16.4550  -18.8700   -4.5530 C   0  0  0  0  0  0
  -15.1730  -19.0040   -5.3580 C   0  0  0  0  0  0
  -16.5060  -18.4240   -7.4140 C   0  0  0  0  0  0
  -16.1510  -18.4090   -8.9200 C   0  0  0  0  0  0
  -14.6400  -18.5600   -8.9080 C   0  0  0  0  0  0
  -11.9580  -18.8740   -8.5250 C   0  0  0  0  0  0
  -10.4670  -19.0380   -8.3900 C   0  0  0  0  0  0
  -10.0120  -20.4380   -8.7070 C   0  0  0  0  0  0
  -10.1290  -21.4480   -7.7630 C   0  0  0  0  0  0
   -9.7110  -22.7320   -8.0560 C   0  0  0  0  0  0
   -9.1750  -23.0180   -9.2890 C   0  0  0  0  0  0
   -9.0530  -22.0260  -10.2340 C   0  0  0  0  0  0
  -14.1630  -18.7730   -7.6250 C   0  0  0  0  0  0
  -15.7820  -15.9560   -4.2360 O   0  0  0  0  0  0
  -15.5850  -17.6790   -2.5130 C   0  0  1  0  0  0
  -15.0740  -19.1180   -0.5370 N   0  3  0  0  0  0
  -15.9350  -20.1840   -2.5730 C   0  0  0  0  0  0
  -16.2860  -18.8540   -3.0900 N   0  0  2  0  0  0
  -14.1190  -19.2980   -4.8080 O   0  0  0  0  0  0
  -15.2450  -18.7840   -6.7140 N   0  0  0  0  0  0
  -16.8260  -19.5570   -9.6630 C   0  0  0  0  0  0
  -16.5610  -17.0920   -9.5620 C   0  0  0  0  0  0
  -13.7390  -18.5130   -9.9530 C   0  0  0  0  0  0
  -12.4250  -18.6670   -9.7680 N   0  0  0  0  0  0
   -9.4690  -20.7420   -9.9470 C   0  0  0  0  0  0
  -12.8050  -18.9340   -7.4140 C   0  0  0  0  0  0
  -14.1440  -15.3567   -5.3617 H   0  0  0  0  0  0
  -13.7916  -16.5077   -4.0284 H   0  0  0  0  0  0
  -14.1649  -14.7903   -3.6571 H   0  0  0  0  0  0
  -15.8822  -15.5643   -2.1990 H   0  0  0  0  0  0
  -17.2980  -16.4228   -2.8956 H   0  0  0  0  0  0
  -14.8268  -17.0231   -0.5988 H   0  0  0  0  0  0
  -16.5306  -17.5913   -0.5720 H   0  0  0  0  0  0
  -16.9834  -20.0833   -0.7022 H   0  0  0  0  0  0
  -15.4931  -21.5322    0.6013 H   0  0  0  0  0  0
  -14.4308  -21.7376   -0.8326 H   0  0  0  0  0  0
  -16.1139  -22.3645   -0.8645 H   0  0  0  0  0  0
  -16.9573  -17.9279   -4.8177 H   0  0  0  0  0  0
  -17.1202  -19.7163   -4.7793 H   0  0  0  0  0  0
  -16.8639  -17.4287   -7.1117 H   0  0  0  0  0  0
  -17.2947  -19.1686   -7.2306 H   0  0  0  0  0  0
   -9.9584  -18.3509   -9.0822 H   0  0  0  0  0  0
  -10.1648  -18.8085   -7.3575 H   0  0  0  0  0  0
  -10.5535  -21.2271   -6.7837 H   0  0  0  0  0  0
   -9.8064  -23.5193   -7.3082 H   0  0  0  0  0  0
   -8.8464  -24.0317   -9.5181 H   0  0  0  0  0  0
   -8.6271  -22.2545  -11.2110 H   0  0  0  0  0  0
  -14.5758  -17.7398   -2.9464 H   0  0  0  0  0  0
  -14.0517  -19.2998   -0.9001 H   0  0  0  0  0  0
  -15.0854  -19.1590    0.5622 H   0  0  0  0  0  0
  -14.9293  -20.4405   -2.9373 H   0  0  0  0  0  0
  -16.6631  -20.9091   -2.9655 H   0  0  0  0  0  0
  -16.5339  -20.5130   -9.2039 H   0  0  0  0  0  0
  -16.5128  -19.5458  -10.7174 H   0  0  0  0  0  0
  -17.9182  -19.4403   -9.6036 H   0  0  0  0  0  0
  -16.0775  -16.2589   -9.0308 H   0  0  0  0  0  0
  -17.6537  -16.9797   -9.5028 H   0  0  0  0  0  0
  -16.2483  -17.0852  -10.6166 H   0  0  0  0  0  0
  -14.1124  -18.3445  -10.9631 H   0  0  0  0  0  0
   -9.3702  -19.9605  -10.7004 H   0  0  0  0  0  0
  -12.4079  -19.1023   -6.4130 H   0  0  0  0  0  0
  1 19  1  0  0  0
  1 32  1  0  0  0
  1 33  1  0  0  0
  1 34  1  0  0  0
  2 19  1  0  0  0
  2 20  1  0  0  0
  2 35  1  0  0  0
  2 36  1  0  0  0
  3 20  1  0  0  0
  3 21  1  0  0  0
  3 37  1  0  0  0
  3 38  1  0  0  0
  4  5  1  0  0  0
  4 21  1  0  0  0
  4 22  1  0  0  0
  4 39  1  0  0  0
  5 40  1  0  0  0
  5 41  1  0  0  0
  5 42  1  0  0  0
  6  7  1  0  0  0
  6 23  1  0  0  0
  6 43  1  0  0  0
  6 44  1  0  0  0
  7 24  2  0  0  0
  7 25  1  0  0  0
  8  9  1  0  0  0
  8 25  1  0  0  0
  8 45  1  0  0  0
  8 46  1  0  0  0
  9 10  1  0  0  0
  9 26  1  0  0  0
  9 27  1  0  0  0
 10 18  2  0  0  0
 10 28  1  0  0  0
 11 12  1  0  0  0
 11 29  1  0  0  0
 11 31  2  0  0  0
 12 13  1  0  0  0
 12 47  1  0  0  0
 12 48  1  0  0  0
 13 14  2  0  0  0
 13 30  1  0  0  0
 14 15  1  0  0  0
 14 49  1  0  0  0
 15 16  2  0  0  0
 15 50  1  0  0  0
 16 17  1  0  0  0
 16 51  1  0  0  0
 17 30  2  0  0  0
 17 52  1  0  0  0
 18 25  1  0  0  0
 18 31  1  0  0  0
 20 23  1  0  0  0
 20 53  1  0  0  0
 21 54  1  0  0  0
 21 55  1  0  0  0
 22 23  1  0  0  0
 22 56  1  0  0  0
 22 57  1  0  0  0
 26 58  1  0  0  0
 26 59  1  0  0  0
 26 60  1  0  0  0
 27 61  1  0  0  0
 27 62  1  0  0  0
 27 63  1  0  0  0
 28 29  2  0  0  0
 28 64  1  0  0  0
 30 65  1  0  0  0
 31 66  1  0  0  0
M  CHG  1  21   1
M  END
> <s_m_source_file>
../5c83_ligand.sdf

> <i_m_source_file_index>
1

> <s_epik_input>
W0NIM11bQ0BIXTFbTkgyK11bQ0gyXVtDQEhdKFtDSDJdT1tDSDNdKVtOQEgrXShbQ0gyXTEpW0NIMl1DKD1PKU4oW0NIMl1DMihbQ0gzXSlbQ0gzXSljKGMyMylbY0hdYyhuW2NIXTMpW0NIMl1jNFtjSF1bY0hdW2NIXVtjSF1bY0hdNA==

> <s_epik_cmdline>
J2VwaWtfYXBwJywgJy1pbWFlJywgJ2xpZ2FuZF9wcm8ubWFlJywgJy1vbWFlJywgJ2xpZ2FuZF9wcmVwLm1hZScsICctbXMnLCAnMScsICctcGgnLCAnNycsICctcGh0JywgJzAuNScsICctbnQn

> <r_lp_tautomer_probability>
1

> <r_epik_Ionization_Penalty>
  0.0301

> <r_epik_Ionization_Penalty_Charging>
  0.0130

> <r_epik_Ionization_Penalty_Neutral>
  0.0170

> <r_epik_State_Penalty>
 -0.0000

> <r_epik_Charging_Adjusted_Penalty>
0.0130326262234274

> <i_epik_Tot_Q>
1

> <i_epik_Tot_abs_Q>
1

$$$$
