5c8m_ligand
                    3D
 Schrodinger Suite 2020-3.
 58 61  0  0  1  0            999 V2000
  -54.7130    1.5010  -21.2730 C   0  0  0  0  0  0
  -55.7040    2.4670  -21.4950 C   0  0  0  0  0  0
  -52.6590   -1.1820  -22.6950 C   0  0  0  0  0  0
  -55.9480    1.8120  -23.7270 C   0  0  0  0  0  0
  -54.9470    0.8420  -23.5880 C   0  0  0  0  0  0
  -54.3180    0.6690  -22.3480 C   0  0  0  0  0  0
  -51.1620   -0.9400  -22.9180 C   0  0  0  0  0  0
  -53.0010   -2.6250  -22.3120 C   0  0  0  0  0  0
  -53.9640    1.1390  -20.2020 N   0  0  0  0  0  0
  -52.1870   -0.4060  -19.5120 C   0  0  0  0  0  0
  -53.1510    0.1760  -20.5240 C   0  0  0  0  0  0
  -56.2710    2.5860  -22.6870 N   0  3  0  0  0  0
  -53.3300   -0.1650  -21.8550 N   0  0  0  0  0  0
  -56.6090    2.0600  -24.9420 N   0  0  0  0  0  0
  -56.6920    1.2170  -26.0480 C   0  0  0  0  0  0
  -57.7530    1.3750  -26.9540 C   0  0  0  0  0  0
  -57.8170    0.5370  -28.0540 C   0  0  0  0  0  0
  -56.8870   -0.4030  -28.2100 N   0  0  0  0  0  0
  -55.8740   -0.5470  -27.3480 C   0  0  0  0  0  0
  -55.7840    0.2660  -26.2910 N   0  0  0  0  0  0
  -54.9390   -1.5700  -27.5340 N   0  0  0  0  0  0
  -54.5250   -1.6730  -28.9600 C   0  0  0  0  0  0
  -53.3440   -2.6210  -29.2000 C   0  0  0  0  0  0
  -52.2430   -2.1580  -28.2430 C   0  0  0  0  0  0
  -52.6570   -2.4560  -26.7950 C   0  0  0  0  0  0
  -53.8860   -1.5920  -26.4770 C   0  0  0  0  0  0
  -50.5560   -2.6080  -28.7530 S   0  0  0  0  0  0
  -50.1000   -3.6880  -27.9470 O   0  0  0  0  0  0
  -50.6000   -2.7890  -30.1620 O   0  0  0  0  0  0
  -49.4980   -1.1770  -28.3760 C   0  0  0  0  0  0
  -56.0105    3.1249  -20.6817 H   0  0  0  0  0  0
  -53.1318   -1.0023  -23.6718 H   0  0  0  0  0  0
  -54.6591    0.2254  -24.4395 H   0  0  0  0  0  0
  -50.7512   -1.7413  -23.5498 H   0  0  0  0  0  0
  -50.6429   -0.9351  -21.9482 H   0  0  0  0  0  0
  -51.0176    0.0301  -23.4161 H   0  0  0  0  0  0
  -52.4664   -3.3178  -22.9785 H   0  0  0  0  0  0
  -54.0850   -2.7836  -22.4114 H   0  0  0  0  0  0
  -52.6972   -2.8099  -21.2711 H   0  0  0  0  0  0
  -52.3164    0.1048  -18.5464 H   0  0  0  0  0  0
  -51.1550   -0.2655  -19.8658 H   0  0  0  0  0  0
  -52.3893   -1.4802  -19.3886 H   0  0  0  0  0  0
  -57.1391    3.0115  -25.0955 H   0  0  0  0  0  0
  -58.5109    2.1420  -26.7944 H   0  0  0  0  0  0
  -58.6193    0.6454  -28.7838 H   0  0  0  0  0  0
  -55.3678   -2.0461  -29.5604 H   0  0  0  0  0  0
  -54.2243   -0.6806  -29.3271 H   0  0  0  0  0  0
  -53.6537   -3.6543  -28.9847 H   0  0  0  0  0  0
  -53.0209   -2.5461  -30.2488 H   0  0  0  0  0  0
  -52.3977   -1.0691  -28.2259 H   0  0  0  0  0  0
  -52.9027   -3.5237  -26.6962 H   0  0  0  0  0  0
  -51.8270   -2.2066  -26.1176 H   0  0  0  0  0  0
  -53.5148   -0.5704  -26.3079 H   0  0  0  0  0  0
  -54.3123   -1.9865  -25.5428 H   0  0  0  0  0  0
  -49.4571   -1.0280  -27.2869 H   0  0  0  0  0  0
  -49.9138   -0.2776  -28.8538 H   0  0  0  0  0  0
  -48.4834   -1.3601  -28.7594 H   0  0  0  0  0  0
  -57.0456    3.3490  -22.8539 H   0  0  0  0  0  0
  1  2  2  0  0  0
  1  6  1  0  0  0
  1  9  1  0  0  0
  2 12  1  0  0  0
  2 31  1  0  0  0
  3  7  1  0  0  0
  3  8  1  0  0  0
  3 13  1  0  0  0
  3 32  1  0  0  0
  4  5  1  0  0  0
  4 12  2  0  0  0
  4 14  1  0  0  0
  5  6  2  0  0  0
  5 33  1  0  0  0
  6 13  1  0  0  0
  7 34  1  0  0  0
  7 35  1  0  0  0
  7 36  1  0  0  0
  8 37  1  0  0  0
  8 38  1  0  0  0
  8 39  1  0  0  0
  9 11  2  0  0  0
 10 11  1  0  0  0
 10 40  1  0  0  0
 10 41  1  0  0  0
 10 42  1  0  0  0
 11 13  1  0  0  0
 12 58  1  0  0  0
 14 15  1  0  0  0
 14 43  1  0  0  0
 15 16  2  0  0  0
 15 20  1  0  0  0
 16 17  1  0  0  0
 16 44  1  0  0  0
 17 18  2  0  0  0
 17 45  1  0  0  0
 18 19  1  0  0  0
 19 20  2  0  0  0
 19 21  1  0  0  0
 21 22  1  0  0  0
 21 26  1  0  0  0
 22 23  1  0  0  0
 22 46  1  0  0  0
 22 47  1  0  0  0
 23 24  1  0  0  0
 23 48  1  0  0  0
 23 49  1  0  0  0
 24 25  1  0  0  0
 24 27  1  0  0  0
 24 50  1  0  0  0
 25 26  1  0  0  0
 25 51  1  0  0  0
 25 52  1  0  0  0
 26 53  1  0  0  0
 26 54  1  0  0  0
 27 28  2  0  0  0
 27 29  2  0  0  0
 27 30  1  0  0  0
 30 55  1  0  0  0
 30 56  1  0  0  0
 30 57  1  0  0  0
M  CHG  1  12   1
M  END
> <s_m_source_file>
../5c8m_ligand.sdf

> <i_m_source_file_index>
1

> <s_epik_input>
W0NIM11bQ0hdKFtDSDNdKW4oYyhuMSlbQ0gzXSljKGMxMilbY0hdYyhuW2NIXTIpW05IXWMzW2NIXVtjSF1uYyhuMylONFtDSDJdW0NIMl1bQ0hdKFtDSDJdW0NIMl00KVMoPU8pKD1PKVtDSDNd

> <s_epik_cmdline>
J2VwaWtfYXBwJywgJy1pbWFlJywgJ2xpZ2FuZF9wcm8ubWFlJywgJy1vbWFlJywgJ2xpZ2FuZF9wcmVwLm1hZScsICctbXMnLCAnMScsICctcGgnLCAnNycsICctcGh0JywgJzAuNScsICctbnQn

> <r_lp_tautomer_probability>
1

> <r_epik_Ionization_Penalty>
  0.1893

> <r_epik_Ionization_Penalty_Charging>
  0.0003

> <r_epik_Ionization_Penalty_Neutral>
  0.1890

> <r_epik_State_Penalty>
 -0.0000

> <r_epik_Charging_Adjusted_Penalty>
0.000298980161291786

> <i_epik_Tot_Q>
1

> <i_epik_Tot_abs_Q>
1

$$$$
