5c91_ligand
                    3D
 Schrodinger Suite 2020-3.
 45 46  0  0  1  0            999 V2000
  -36.9880    3.4340   -4.4930 O   0  0  0  0  0  0
  -36.1060    9.8520   -4.2280 C   0  0  0  0  0  0
  -35.5210    8.5530   -6.2430 C   0  0  0  0  0  0
  -35.0460    7.3050   -6.9370 C   0  0  0  0  0  0
  -33.9830    5.9530   -8.3930 N   0  0  0  0  0  0
  -34.1540    7.2570   -8.1170 C   0  0  0  0  0  0
  -33.5660    8.4340   -8.8510 C   0  0  0  0  0  0
  -33.1560    5.4310   -9.5180 C   0  0  0  0  0  0
  -34.6710    5.1920   -7.5090 C   0  0  0  0  0  0
  -34.7970    3.8080   -7.3950 C   0  0  0  0  0  0
  -35.5700    3.2490   -6.3800 C   0  0  0  0  0  0
  -36.2340    4.0570   -5.4600 C   0  0  0  0  0  0
  -37.4800    4.0670   -3.3090 C   0  0  0  0  0  0
  -36.1200    5.4490   -5.5680 C   0  0  0  0  0  0
  -36.1110   10.4690   -0.5500 O   0  0  0  0  0  0
  -37.2340   10.5140   -1.0360 C   0  0  0  0  0  0
  -38.3870   10.1030   -0.2360 O   0  0  0  0  0  0
  -38.3640    8.9420    0.5930 C   0  0  0  0  0  0
  -37.4480   11.0200   -2.4520 C   0  0  0  0  0  0
  -37.4600    9.9120   -3.5180 C   0  0  0  0  0  0
  -35.6990    8.6260   -4.9130 N   0  0  0  0  0  0
  -35.7220    9.5190   -6.9640 O   0  0  0  0  0  0
  -35.3420    6.0000   -6.5830 C   0  0  0  0  0  0
  -36.0689   10.6222   -5.0124 H   0  0  0  0  0  0
  -35.3017   10.0316   -3.4995 H   0  0  0  0  0  0
  -33.8994    9.3674   -8.3739 H   0  0  0  0  0  0
  -33.9012    8.4175   -9.8986 H   0  0  0  0  0  0
  -32.4681    8.3764   -8.8164 H   0  0  0  0  0  0
  -32.7143    6.2737  -10.0701 H   0  0  0  0  0  0
  -33.7899    4.8405  -10.1958 H   0  0  0  0  0  0
  -32.3535    4.7937   -9.1182 H   0  0  0  0  0  0
  -34.2865    3.1583   -8.1059 H   0  0  0  0  0  0
  -35.6564    2.1650   -6.3047 H   0  0  0  0  0  0
  -38.0505    3.3387   -2.7139 H   0  0  0  0  0  0
  -38.1343    4.9064   -3.5869 H   0  0  0  0  0  0
  -36.6336    4.4428   -2.7154 H   0  0  0  0  0  0
  -36.6376    6.0975   -4.8612 H   0  0  0  0  0  0
  -39.3357    8.8317    1.0966 H   0  0  0  0  0  0
  -37.5699    9.0456    1.3471 H   0  0  0  0  0  0
  -38.1687    8.0536   -0.0256 H   0  0  0  0  0  0
  -38.4157   11.5395   -2.5134 H   0  0  0  0  0  0
  -36.6400   11.7173   -2.7183 H   0  0  0  0  0  0
  -38.2501   10.1261   -4.2528 H   0  0  0  0  0  0
  -37.6627    8.9459   -3.0327 H   0  0  0  0  0  0
  -35.5237    7.7059   -4.3361 H   0  0  0  0  0  0
  1 12  1  0  0  0
  1 13  1  0  0  0
  2 20  1  0  0  0
  2 21  1  0  0  0
  2 24  1  0  0  0
  2 25  1  0  0  0
  3  4  1  0  0  0
  3 21  1  0  0  0
  3 22  2  0  0  0
  4  6  2  0  0  0
  4 23  1  0  0  0
  5  6  1  0  0  0
  5  8  1  0  0  0
  5  9  1  0  0  0
  6  7  1  0  0  0
  7 26  1  0  0  0
  7 27  1  0  0  0
  7 28  1  0  0  0
  8 29  1  0  0  0
  8 30  1  0  0  0
  8 31  1  0  0  0
  9 10  1  0  0  0
  9 23  2  0  0  0
 10 11  2  0  0  0
 10 32  1  0  0  0
 11 12  1  0  0  0
 11 33  1  0  0  0
 12 14  2  0  0  0
 13 34  1  0  0  0
 13 35  1  0  0  0
 13 36  1  0  0  0
 14 23  1  0  0  0
 14 37  1  0  0  0
 15 16  2  0  0  0
 16 17  1  0  0  0
 16 19  1  0  0  0
 17 18  1  0  0  0
 18 38  1  0  0  0
 18 39  1  0  0  0
 18 40  1  0  0  0
 19 20  1  0  0  0
 19 41  1  0  0  0
 19 42  1  0  0  0
 20 43  1  0  0  0
 20 44  1  0  0  0
 21 45  1  0  0  0
M  END
> <s_m_source_file>
../5c91_ligand.sdf

> <i_m_source_file_index>
1

> <s_epik_input>
W2NIXTFbY0hdYyhPW0NIM10pW2NIXWMoYzEyKWMoYyhbQ0gzXSluMltDSDNdKUMoPU8pW05IXVtDSDJdW0NIMl1bQ0gyXUMoPU8pT1tDSDNd

> <s_epik_cmdline>
J2VwaWtfYXBwJywgJy1pbWFlJywgJ2xpZ2FuZF9wcm8ubWFlJywgJy1vbWFlJywgJ2xpZ2FuZF9wcmVwLm1hZScsICctbXMnLCAnMScsICctcGgnLCAnNycsICctcGh0JywgJzAuNScsICctbnQn

> <r_lp_tautomer_probability>
1

> <r_epik_Ionization_Penalty>
  0.0000

> <r_epik_Ionization_Penalty_Charging>
  0.0000

> <r_epik_Ionization_Penalty_Neutral>
  0.0000

> <r_epik_State_Penalty>
 -0.0000

> <r_epik_Charging_Adjusted_Penalty>
0

> <i_epik_Tot_Q>
0

> <i_epik_Tot_abs_Q>
0

> <s_epik_Chemistry_Notes>
This compound has an ester and may undergo hydrolysis at high or low pH.

$$$$
