5cal_ligand
                    3D
 Schrodinger Suite 2020-3.
 55 57  0  0  1  0            999 V2000
  -52.7840    1.5370  -19.3620 C   0  0  0  0  0  0
  -53.7480    2.4970  -19.6950 C   0  0  0  0  0  0
  -50.5890   -1.2760  -20.3250 C   0  0  0  0  0  0
  -53.8730    1.7240  -21.8930 C   0  0  0  0  0  0
  -52.8930    0.7500  -21.6510 C   0  0  0  0  0  0
  -52.3360    0.6320  -20.3640 C   0  0  0  0  0  0
  -51.4300   -2.3860  -20.9680 C   0  0  0  0  0  0
  -49.5080   -0.7450  -21.2710 C   0  0  0  0  0  0
  -52.1060    1.2470  -18.2230 N   0  0  0  0  0  0
  -50.3980   -0.3090  -17.3570 C   0  0  0  0  0  0
  -51.2960    0.2520  -18.4330 C   0  0  0  0  0  0
  -54.2560    2.5440  -20.9140 N   0  3  0  0  0  0
  -51.3910   -0.1800  -19.7360 N   0  0  0  0  0  0
  -54.5000    1.9380  -23.1310 N   0  0  0  0  0  0
  -54.5270    1.1190  -24.2560 C   0  0  0  0  0  0
  -55.6330    1.1620  -25.1240 C   0  0  0  0  0  0
  -55.6200    0.3330  -26.2400 C   0  0  0  0  0  0
  -54.5700   -0.4650  -26.4540 N   0  0  0  0  0  0
  -53.5430   -0.4940  -25.6070 C   0  0  0  0  0  0
  -53.5100    0.3020  -24.5500 N   0  0  0  0  0  0
  -52.4410   -1.2840  -25.8610 N   0  0  0  0  0  0
  -52.2180   -2.5520  -25.1530 C   0  0  0  0  0  0
  -50.9280   -3.2700  -25.6050 C   0  0  0  0  0  0
  -50.7370   -3.1550  -27.1290 C   0  0  0  0  0  0
  -49.7450   -2.6010  -24.9020 C   0  0  0  0  0  0
  -50.9650   -4.7320  -25.1810 C   0  0  0  0  0  0
  -51.4460   -5.0580  -24.1060 O   0  0  0  0  0  0
  -50.4470   -5.7080  -25.9660 N   0  0  0  0  0  0
  -54.0820    3.2113  -18.9424 H   0  0  0  0  0  0
  -50.0977   -1.7280  -19.4508 H   0  0  0  0  0  0
  -52.5653    0.0895  -22.4538 H   0  0  0  0  0  0
  -50.7641   -3.1584  -21.3803 H   0  0  0  0  0  0
  -52.0425   -1.9603  -21.7765 H   0  0  0  0  0  0
  -52.0865   -2.8353  -20.2083 H   0  0  0  0  0  0
  -48.9369   -1.5888  -21.6856 H   0  0  0  0  0  0
  -48.8295   -0.0804  -20.7161 H   0  0  0  0  0  0
  -49.9812   -0.1845  -22.0907 H   0  0  0  0  0  0
  -50.5524    0.2500  -16.4223 H   0  0  0  0  0  0
  -49.3478   -0.2161  -17.6707 H   0  0  0  0  0  0
  -50.6396   -1.3697  -17.1940 H   0  0  0  0  0  0
  -55.0684    2.8632  -23.3070 H   0  0  0  0  0  0
  -56.4752    1.8255  -24.9275 H   0  0  0  0  0  0
  -56.4598    0.3341  -26.9349 H   0  0  0  0  0  0
  -51.7188   -0.9417  -26.6168 H   0  0  0  0  0  0
  -52.1348   -2.3593  -24.0732 H   0  0  0  0  0  0
  -53.0635   -3.2302  -25.3403 H   0  0  0  0  0  0
  -50.7127   -2.0935  -27.4164 H   0  0  0  0  0  0
  -51.5720   -3.6547  -27.6419 H   0  0  0  0  0  0
  -49.7899   -3.6346  -27.4170 H   0  0  0  0  0  0
  -49.6971   -1.5413  -25.1931 H   0  0  0  0  0  0
  -48.8119   -3.1044  -25.1952 H   0  0  0  0  0  0
  -49.8756   -2.6764  -23.8124 H   0  0  0  0  0  0
  -50.0052   -5.4534  -26.9407 H   0  0  0  0  0  0
  -50.4684   -6.7547  -25.6284 H   0  0  0  0  0  0
  -55.0319    3.2844  -21.1583 H   0  0  0  0  0  0
  1  2  2  0  0  0
  1  6  1  0  0  0
  1  9  1  0  0  0
  2 12  1  0  0  0
  2 29  1  0  0  0
  3  7  1  0  0  0
  3  8  1  0  0  0
  3 13  1  0  0  0
  3 30  1  0  0  0
  4  5  1  0  0  0
  4 12  2  0  0  0
  4 14  1  0  0  0
  5  6  2  0  0  0
  5 31  1  0  0  0
  6 13  1  0  0  0
  7 32  1  0  0  0
  7 33  1  0  0  0
  7 34  1  0  0  0
  8 35  1  0  0  0
  8 36  1  0  0  0
  8 37  1  0  0  0
  9 11  2  0  0  0
 10 11  1  0  0  0
 10 38  1  0  0  0
 10 39  1  0  0  0
 10 40  1  0  0  0
 11 13  1  0  0  0
 12 55  1  0  0  0
 14 15  1  0  0  0
 14 41  1  0  0  0
 15 16  2  0  0  0
 15 20  1  0  0  0
 16 17  1  0  0  0
 16 42  1  0  0  0
 17 18  2  0  0  0
 17 43  1  0  0  0
 18 19  1  0  0  0
 19 20  2  0  0  0
 19 21  1  0  0  0
 21 22  1  0  0  0
 21 44  1  0  0  0
 22 23  1  0  0  0
 22 45  1  0  0  0
 22 46  1  0  0  0
 23 24  1  0  0  0
 23 25  1  0  0  0
 23 26  1  0  0  0
 24 47  1  0  0  0
 24 48  1  0  0  0
 24 49  1  0  0  0
 25 50  1  0  0  0
 25 51  1  0  0  0
 25 52  1  0  0  0
 26 27  2  0  0  0
 26 28  1  0  0  0
 28 53  1  0  0  0
 28 54  1  0  0  0
M  CHG  1  12   1
M  END
> <s_m_source_file>
../5cal_ligand.sdf

> <i_m_source_file_index>
1

> <s_epik_input>
W0NIM11bQ0hdKFtDSDNdKW4oYyhuMSlbQ0gzXSljKGMxMilbY0hdYyhuW2NIXTIpW05IXWMzW2NIXVtjSF1uYyhuMylbTkhdW0NIMl1DKFtDSDNdKShbQ0gzXSlDKD1PKVtOSDJd

> <s_epik_cmdline>
J2VwaWtfYXBwJywgJy1pbWFlJywgJ2xpZ2FuZF9wcm8ubWFlJywgJy1vbWFlJywgJ2xpZ2FuZF9wcmVwLm1hZScsICctbXMnLCAnMScsICctcGgnLCAnNycsICctcGh0JywgJzAuNScsICctbnQn

> <r_lp_tautomer_probability>
1

> <r_epik_Ionization_Penalty>
  0.2347

> <r_epik_Ionization_Penalty_Charging>
  0.0003

> <r_epik_Ionization_Penalty_Neutral>
  0.2345

> <r_epik_State_Penalty>
 -0.0000

> <r_epik_Charging_Adjusted_Penalty>
0.000298980161291786

> <i_epik_Tot_Q>
1

> <i_epik_Tot_abs_Q>
1

$$$$
