5can_ligand
                    3D
 Schrodinger Suite 2020-3.
 56 59  0  0  1  0            999 V2000
  -53.0750    1.5580  -19.6130 C   0  0  0  0  0  0
  -54.0750    2.5200  -19.8400 C   0  0  0  0  0  0
  -51.0540   -1.0920  -21.1080 C   0  0  0  0  0  0
  -54.3070    1.8440  -22.0850 C   0  0  0  0  0  0
  -53.2790    0.9140  -21.9500 C   0  0  0  0  0  0
  -52.6700    0.7400  -20.7020 C   0  0  0  0  0  0
  -49.5520   -0.8910  -21.3220 C   0  0  0  0  0  0
  -51.4850   -2.5300  -20.8210 C   0  0  0  0  0  0
  -52.3240    1.1770  -18.5410 N   0  0  0  0  0  0
  -50.5770   -0.4100  -17.8750 C   0  0  0  0  0  0
  -51.5270    0.1970  -18.8760 C   0  0  0  0  0  0
  -54.6540    2.6060  -21.0330 N   0  3  0  0  0  0
  -51.6900   -0.1000  -20.2220 N   0  0  0  0  0  0
  -54.9700    2.0530  -23.3080 N   0  0  0  0  0  0
  -55.0130    1.1970  -24.4050 C   0  0  0  0  0  0
  -56.1600    1.1320  -25.2140 C   0  0  0  0  0  0
  -56.1390    0.2810  -26.3160 C   0  0  0  0  0  0
  -55.0380   -0.4320  -26.5810 N   0  0  0  0  0  0
  -53.9750   -0.3920  -25.7730 C   0  0  0  0  0  0
  -53.9650    0.4450  -24.7370 N   0  0  0  0  0  0
  -52.7850   -1.0430  -26.0900 N   0  0  0  0  0  0
  -51.8100   -1.2230  -24.9800 C   0  0  0  0  0  0
  -50.6580   -1.9690  -25.7030 C   0  0  0  0  0  0
  -51.4320   -2.9640  -26.6030 C   0  0  1  0  0  0
  -52.8090   -2.3030  -26.8630 C   0  0  0  0  0  0
  -50.7000   -3.0580  -27.9490 C   0  0  0  0  0  0
  -51.5790   -4.2940  -25.8580 C   0  0  0  0  0  0
  -52.3010   -4.3900  -24.8680 O   0  0  0  0  0  0
  -50.9010   -5.3990  -26.2470 N   0  0  0  0  0  0
  -54.3750    3.1946  -19.0381 H   0  0  0  0  0  0
  -51.4966   -0.8427  -22.0837 H   0  0  0  0  0  0
  -52.9519    0.3272  -22.8083 H   0  0  0  0  0  0
  -49.1692   -1.6743  -21.9928 H   0  0  0  0  0  0
  -49.0325   -0.9509  -20.3542 H   0  0  0  0  0  0
  -49.3748    0.0966  -21.7728 H   0  0  0  0  0  0
  -50.9735   -3.2118  -21.5164 H   0  0  0  0  0  0
  -52.5733   -2.6199  -20.9533 H   0  0  0  0  0  0
  -51.2184   -2.7932  -19.7868 H   0  0  0  0  0  0
  -50.7214    0.0689  -16.8953 H   0  0  0  0  0  0
  -49.5413   -0.2532  -18.2107 H   0  0  0  0  0  0
  -50.7752   -1.4885  -17.7887 H   0  0  0  0  0  0
  -55.5362    2.9812  -23.4751 H   0  0  0  0  0  0
  -57.0415    1.7309  -24.9854 H   0  0  0  0  0  0
  -57.0148    0.1961  -26.9594 H   0  0  0  0  0  0
  -51.5141   -0.2385  -24.5886 H   0  0  0  0  0  0
  -52.2745   -1.8127  -24.1759 H   0  0  0  0  0  0
  -50.0569   -1.2477  -26.2762 H   0  0  0  0  0  0
  -50.0202   -2.4681  -24.9586 H   0  0  0  0  0  0
  -53.6353   -2.9358  -26.5070 H   0  0  0  0  0  0
  -52.9541   -2.0762  -27.9295 H   0  0  0  0  0  0
  -50.6438   -2.0592  -28.4063 H   0  0  0  0  0  0
  -51.2486   -3.7373  -28.6180 H   0  0  0  0  0  0
  -49.6831   -3.4449  -27.7871 H   0  0  0  0  0  0
  -50.2431   -5.3590  -27.1277 H   0  0  0  0  0  0
  -51.0079   -6.3370  -25.6825 H   0  0  0  0  0  0
  -55.4645    3.3307  -21.2000 H   0  0  0  0  0  0
  1  2  2  0  0  0
  1  6  1  0  0  0
  1  9  1  0  0  0
  2 12  1  0  0  0
  2 30  1  0  0  0
  3  7  1  0  0  0
  3  8  1  0  0  0
  3 13  1  0  0  0
  3 31  1  0  0  0
  4  5  1  0  0  0
  4 12  2  0  0  0
  4 14  1  0  0  0
  5  6  2  0  0  0
  5 32  1  0  0  0
  6 13  1  0  0  0
  7 33  1  0  0  0
  7 34  1  0  0  0
  7 35  1  0  0  0
  8 36  1  0  0  0
  8 37  1  0  0  0
  8 38  1  0  0  0
  9 11  2  0  0  0
 10 11  1  0  0  0
 10 39  1  0  0  0
 10 40  1  0  0  0
 10 41  1  0  0  0
 11 13  1  0  0  0
 12 56  1  0  0  0
 14 15  1  0  0  0
 14 42  1  0  0  0
 15 16  2  0  0  0
 15 20  1  0  0  0
 16 17  1  0  0  0
 16 43  1  0  0  0
 17 18  2  0  0  0
 17 44  1  0  0  0
 18 19  1  0  0  0
 19 20  2  0  0  0
 19 21  1  0  0  0
 21 22  1  0  0  0
 21 25  1  0  0  0
 22 23  1  0  0  0
 22 45  1  0  0  0
 22 46  1  0  0  0
 23 24  1  0  0  0
 23 47  1  0  0  0
 23 48  1  0  0  0
 24 25  1  0  0  0
 24 26  1  0  0  0
 24 27  1  0  0  0
 25 49  1  0  0  0
 25 50  1  0  0  0
 26 51  1  0  0  0
 26 52  1  0  0  0
 26 53  1  0  0  0
 27 28  2  0  0  0
 27 29  1  0  0  0
 29 54  1  0  0  0
 29 55  1  0  0  0
M  CHG  1  12   1
M  END
> <s_m_source_file>
../5can_ligand.sdf

> <i_m_source_file_index>
1

> <s_epik_input>
W0NIM11bQ0hdKFtDSDNdKW4oYyhuMSlbQ0gzXSljKGMxMilbY0hdYyhuW2NIXTIpW05IXWMzW2NIXVtjSF1uYyhuMylOKFtDSDJdNClbQ0gyXVtDSDJdW0NAQF00KFtDSDNdKUMoPU8pW05IMl0=

> <s_epik_cmdline>
J2VwaWtfYXBwJywgJy1pbWFlJywgJ2xpZ2FuZF9wcm8ubWFlJywgJy1vbWFlJywgJ2xpZ2FuZF9wcmVwLm1hZScsICctbXMnLCAnMScsICctcGgnLCAnNycsICctcGh0JywgJzAuNScsICctbnQn

> <r_lp_tautomer_probability>
1

> <r_epik_Ionization_Penalty>
  0.2373

> <r_epik_Ionization_Penalty_Charging>
  0.0003

> <r_epik_Ionization_Penalty_Neutral>
  0.2370

> <r_epik_State_Penalty>
 -0.0000

> <r_epik_Charging_Adjusted_Penalty>
0.000298980161291786

> <i_epik_Tot_Q>
1

> <i_epik_Tot_abs_Q>
1

$$$$
