5cao_ligand
                    3D
 Schrodinger Suite 2020-3.
 57 59  0  0  1  0            999 V2000
  -54.3970    1.6160  -21.0740 C   0  0  0  0  0  0
  -55.3900    2.5560  -21.3850 C   0  0  0  0  0  0
  -52.1870   -1.0430  -22.3030 C   0  0  0  0  0  0
  -55.4720    1.8510  -23.6080 C   0  0  0  0  0  0
  -54.4510    0.9160  -23.3860 C   0  0  0  0  0  0
  -53.9100    0.7760  -22.1020 C   0  0  0  0  0  0
  -50.7000   -0.7210  -22.4950 C   0  0  0  0  0  0
  -52.4620   -2.4900  -21.8840 C   0  0  0  0  0  0
  -53.7200    1.2850  -19.9450 N   0  0  0  0  0  0
  -51.9650   -0.2220  -19.1090 C   0  0  0  0  0  0
  -52.8670    0.3310  -20.1910 C   0  0  0  0  0  0
  -55.8920    2.6320  -22.6070 N   0  3  0  0  0  0
  -52.9440   -0.0310  -21.5270 N   0  0  0  0  0  0
  -56.0410    2.0660  -24.8730 N   0  0  0  0  0  0
  -56.0580    1.1740  -25.9340 C   0  0  0  0  0  0
  -57.1330    1.2110  -26.8370 C   0  0  0  0  0  0
  -57.1410    0.2910  -27.8790 C   0  0  0  0  0  0
  -56.1330   -0.5760  -28.0090 N   0  0  0  0  0  0
  -55.1260   -0.5980  -27.1410 C   0  0  0  0  0  0
  -55.0850    0.2720  -26.1250 N   0  0  0  0  0  0
  -54.1270   -1.5430  -27.3100 N   0  0  0  0  0  0
  -52.9540   -1.6160  -26.4250 C   0  0  0  0  0  0
  -52.2460   -2.9770  -26.4950 C   0  0  0  0  0  0
  -53.0810   -4.0420  -25.7600 C   0  0  0  0  0  0
  -50.9020   -2.8170  -25.7690 C   0  0  0  0  0  0
  -52.0020   -3.4120  -28.2510 S   0  0  0  0  0  0
  -53.2720   -3.7090  -28.8270 O   0  0  0  0  0  0
  -51.2010   -2.3880  -28.8490 O   0  0  0  0  0  0
  -51.0480   -4.9630  -28.2630 C   0  0  0  0  0  0
  -55.7527    3.2322  -20.6109 H   0  0  0  0  0  0
  -52.6391   -0.9307  -23.2995 H   0  0  0  0  0  0
  -54.0809    0.3023  -24.2073 H   0  0  0  0  0  0
  -50.2236   -1.5227  -23.0784 H   0  0  0  0  0  0
  -50.2119   -0.6429  -21.5123 H   0  0  0  0  0  0
  -50.5979    0.2336  -23.0320 H   0  0  0  0  0  0
  -51.8637   -3.1719  -22.5062 H   0  0  0  0  0  0
  -53.5306   -2.7137  -22.0180 H   0  0  0  0  0  0
  -52.1892   -2.6237  -20.8268 H   0  0  0  0  0  0
  -52.1697    0.2964  -18.1606 H   0  0  0  0  0  0
  -50.9138   -0.0659  -19.3928 H   0  0  0  0  0  0
  -52.1559   -1.2984  -18.9872 H   0  0  0  0  0  0
  -56.5362    3.0221  -25.0980 H   0  0  0  0  0  0
  -57.9365    1.9389  -26.7242 H   0  0  0  0  0  0
  -57.9682    0.2770  -28.5887 H   0  0  0  0  0  0
  -54.2337   -2.2550  -28.1416 H   0  0  0  0  0  0
  -52.2278   -0.8420  -26.7142 H   0  0  0  0  0  0
  -53.2693   -1.4523  -25.3840 H   0  0  0  0  0  0
  -53.2071   -3.7471  -24.7078 H   0  0  0  0  0  0
  -52.5641   -5.0117  -25.8096 H   0  0  0  0  0  0
  -54.0682   -4.1278  -26.2376 H   0  0  0  0  0  0
  -51.0830   -2.5557  -24.7159 H   0  0  0  0  0  0
  -50.3183   -2.0183  -26.2499 H   0  0  0  0  0  0
  -50.3422   -3.7625  -25.8212 H   0  0  0  0  0  0
  -51.6466   -5.7652  -27.8068 H   0  0  0  0  0  0
  -50.1194   -4.8268  -27.6892 H   0  0  0  0  0  0
  -50.8017   -5.2339  -29.3003 H   0  0  0  0  0  0
  -56.6867    3.3588  -22.8309 H   0  0  0  0  0  0
  1  2  2  0  0  0
  1  6  1  0  0  0
  1  9  1  0  0  0
  2 12  1  0  0  0
  2 30  1  0  0  0
  3  7  1  0  0  0
  3  8  1  0  0  0
  3 13  1  0  0  0
  3 31  1  0  0  0
  4  5  1  0  0  0
  4 12  2  0  0  0
  4 14  1  0  0  0
  5  6  2  0  0  0
  5 32  1  0  0  0
  6 13  1  0  0  0
  7 33  1  0  0  0
  7 34  1  0  0  0
  7 35  1  0  0  0
  8 36  1  0  0  0
  8 37  1  0  0  0
  8 38  1  0  0  0
  9 11  2  0  0  0
 10 11  1  0  0  0
 10 39  1  0  0  0
 10 40  1  0  0  0
 10 41  1  0  0  0
 11 13  1  0  0  0
 12 57  1  0  0  0
 14 15  1  0  0  0
 14 42  1  0  0  0
 15 16  2  0  0  0
 15 20  1  0  0  0
 16 17  1  0  0  0
 16 43  1  0  0  0
 17 18  2  0  0  0
 17 44  1  0  0  0
 18 19  1  0  0  0
 19 20  2  0  0  0
 19 21  1  0  0  0
 21 22  1  0  0  0
 21 45  1  0  0  0
 22 23  1  0  0  0
 22 46  1  0  0  0
 22 47  1  0  0  0
 23 24  1  0  0  0
 23 25  1  0  0  0
 23 26  1  0  0  0
 24 48  1  0  0  0
 24 49  1  0  0  0
 24 50  1  0  0  0
 25 51  1  0  0  0
 25 52  1  0  0  0
 25 53  1  0  0  0
 26 27  2  0  0  0
 26 28  2  0  0  0
 26 29  1  0  0  0
 29 54  1  0  0  0
 29 55  1  0  0  0
 29 56  1  0  0  0
M  CHG  1  12   1
M  END
> <s_m_source_file>
../5cao_ligand.sdf

> <i_m_source_file_index>
1

> <s_epik_input>
W0NIM11bQ0hdKFtDSDNdKW4oYyhuMSlbQ0gzXSljKGMxMilbY0hdYyhuW2NIXTIpW05IXWMzW2NIXVtjSF1uYyhuMylbTkhdW0NIMl1DKFtDSDNdKShbQ0gzXSlTKD1PKSg9TylbQ0gzXQ==

> <s_epik_cmdline>
J2VwaWtfYXBwJywgJy1pbWFlJywgJ2xpZ2FuZF9wcm8ubWFlJywgJy1vbWFlJywgJ2xpZ2FuZF9wcmVwLm1hZScsICctbXMnLCAnMScsICctcGgnLCAnNycsICctcGh0JywgJzAuNScsICctbnQn

> <r_lp_tautomer_probability>
1

> <r_epik_Ionization_Penalty>
  0.2173

> <r_epik_Ionization_Penalty_Charging>
  0.0003

> <r_epik_Ionization_Penalty_Neutral>
  0.2170

> <r_epik_State_Penalty>
 -0.0000

> <r_epik_Charging_Adjusted_Penalty>
0.000298980161291786

> <i_epik_Tot_Q>
1

> <i_epik_Tot_abs_Q>
1

$$$$
