5cap_ligand
                    3D
 Schrodinger Suite 2020-3.
 56 58  0  0  1  0            999 V2000
  -54.2690    1.3930  -21.0150 C   0  0  0  0  0  0
  -55.2370    2.3870  -21.2280 C   0  0  0  0  0  0
  -52.2580   -1.2760  -22.4910 C   0  0  0  0  0  0
  -55.4830    1.7980  -23.4800 C   0  0  0  0  0  0
  -54.4940    0.8090  -23.3500 C   0  0  0  0  0  0
  -53.8870    0.5840  -22.1080 C   0  0  0  0  0  0
  -52.6970   -2.7290  -22.3600 C   0  0  0  0  0  0
  -50.8160   -0.9720  -22.9060 C   0  0  0  0  0  0
  -53.5400    0.9720  -19.9470 N   0  0  0  0  0  0
  -51.8030   -0.6690  -19.3070 C   0  0  0  0  0  0
  -52.7500   -0.0060  -20.2890 C   0  0  0  0  0  0
  -55.7980    2.5480  -22.4190 N   0  3  0  0  0  0
  -52.9320   -0.2920  -21.6260 N   0  0  0  0  0  0
  -56.1430    2.0630  -24.7050 N   0  0  0  0  0  0
  -56.1600    1.2080  -25.7970 C   0  0  0  0  0  0
  -57.2130    1.1600  -26.7440 C   0  0  0  0  0  0
  -57.1070    0.2090  -27.7750 C   0  0  0  0  0  0
  -56.0250   -0.6060  -27.8560 N   0  0  0  0  0  0
  -55.0790   -0.5330  -26.9170 C   0  0  0  0  0  0
  -55.1370    0.3750  -25.9490 N   0  0  0  0  0  0
  -53.9140   -1.2090  -26.9400 O   0  0  0  0  0  0
  -53.7850   -2.5970  -27.1580 C   0  0  0  0  0  0
  -52.3440   -2.8720  -27.5790 C   0  0  0  0  0  0
  -51.3790   -2.7980  -26.3890 C   0  0  0  0  0  0
  -52.4070   -4.3340  -28.0240 C   0  0  0  0  0  0
  -51.7840   -1.7550  -28.9280 S   0  0  0  0  0  0
  -52.8290   -1.5520  -29.8710 O   0  0  0  0  0  0
  -50.5550   -2.2500  -29.4160 O   0  0  0  0  0  0
  -51.4920   -0.1300  -28.2220 C   0  0  0  0  0  0
  -55.5317    3.0356  -20.4031 H   0  0  0  0  0  0
  -52.7842   -1.0121  -23.4202 H   0  0  0  0  0  0
  -54.1989    0.2165  -24.2160 H   0  0  0  0  0  0
  -52.1174   -3.3514  -23.0576 H   0  0  0  0  0  0
  -53.7678   -2.8114  -22.5979 H   0  0  0  0  0  0
  -52.5227   -3.0732  -21.3299 H   0  0  0  0  0  0
  -50.4396   -1.7840  -23.5455 H   0  0  0  0  0  0
  -50.1856   -0.8900  -22.0083 H   0  0  0  0  0  0
  -50.7868   -0.0235  -23.4624 H   0  0  0  0  0  0
  -51.9105   -0.1978  -18.3189 H   0  0  0  0  0  0
  -50.7676   -0.5504  -19.6591 H   0  0  0  0  0  0
  -52.0441   -1.7396  -19.2309 H   0  0  0  0  0  0
  -56.6940    3.0054  -24.8403 H   0  0  0  0  0  0
  -58.0689    1.8316  -26.6764 H   0  0  0  0  0  0
  -57.9018    0.1259  -28.5162 H   0  0  0  0  0  0
  -54.0208   -3.1375  -26.2294 H   0  0  0  0  0  0
  -54.4803   -2.9098  -27.9509 H   0  0  0  0  0  0
  -51.7277   -3.4710  -25.5918 H   0  0  0  0  0  0
  -51.3441   -1.7664  -26.0088 H   0  0  0  0  0  0
  -50.3732   -3.1036  -26.7130 H   0  0  0  0  0  0
  -52.7460   -4.9585  -27.1843 H   0  0  0  0  0  0
  -51.4077   -4.6628  -28.3455 H   0  0  0  0  0  0
  -53.1126   -4.4321  -28.8622 H   0  0  0  0  0  0
  -52.4377    0.2767  -27.8343 H   0  0  0  0  0  0
  -51.0951    0.5410  -28.9980 H   0  0  0  0  0  0
  -50.7644   -0.2122  -27.4012 H   0  0  0  0  0  0
  -56.5601    3.3272  -22.5672 H   0  0  0  0  0  0
  1  2  2  0  0  0
  1  6  1  0  0  0
  1  9  1  0  0  0
  2 12  1  0  0  0
  2 30  1  0  0  0
  3  7  1  0  0  0
  3  8  1  0  0  0
  3 13  1  0  0  0
  3 31  1  0  0  0
  4  5  1  0  0  0
  4 12  2  0  0  0
  4 14  1  0  0  0
  5  6  2  0  0  0
  5 32  1  0  0  0
  6 13  1  0  0  0
  7 33  1  0  0  0
  7 34  1  0  0  0
  7 35  1  0  0  0
  8 36  1  0  0  0
  8 37  1  0  0  0
  8 38  1  0  0  0
  9 11  2  0  0  0
 10 11  1  0  0  0
 10 39  1  0  0  0
 10 40  1  0  0  0
 10 41  1  0  0  0
 11 13  1  0  0  0
 12 56  1  0  0  0
 14 15  1  0  0  0
 14 42  1  0  0  0
 15 16  2  0  0  0
 15 20  1  0  0  0
 16 17  1  0  0  0
 16 43  1  0  0  0
 17 18  2  0  0  0
 17 44  1  0  0  0
 18 19  1  0  0  0
 19 20  2  0  0  0
 19 21  1  0  0  0
 21 22  1  0  0  0
 22 23  1  0  0  0
 22 45  1  0  0  0
 22 46  1  0  0  0
 23 24  1  0  0  0
 23 25  1  0  0  0
 23 26  1  0  0  0
 24 47  1  0  0  0
 24 48  1  0  0  0
 24 49  1  0  0  0
 25 50  1  0  0  0
 25 51  1  0  0  0
 25 52  1  0  0  0
 26 27  2  0  0  0
 26 28  2  0  0  0
 26 29  1  0  0  0
 29 53  1  0  0  0
 29 54  1  0  0  0
 29 55  1  0  0  0
M  CHG  1  12   1
M  END
> <s_m_source_file>
../5cap_ligand.sdf

> <i_m_source_file_index>
1

> <s_epik_input>
W0NIM11bQ0hdKFtDSDNdKW4oYyhuMSlbQ0gzXSljKGMxMilbY0hdYyhuW2NIXTIpW05IXWMzW2NIXVtjSF1uYyhuMylPW0NIMl1DKFtDSDNdKShbQ0gzXSlTKD1PKSg9TylbQ0gzXQ==

> <s_epik_cmdline>
J2VwaWtfYXBwJywgJy1pbWFlJywgJ2xpZ2FuZF9wcm8ubWFlJywgJy1vbWFlJywgJ2xpZ2FuZF9wcmVwLm1hZScsICctbXMnLCAnMScsICctcGgnLCAnNycsICctcGh0JywgJzAuNScsICctbnQn

> <r_lp_tautomer_probability>
1

> <r_epik_Ionization_Penalty>
  0.1687

> <r_epik_Ionization_Penalty_Charging>
  0.0000

> <r_epik_Ionization_Penalty_Neutral>
  0.1687

> <r_epik_State_Penalty>
 -0.0000

> <r_epik_Charging_Adjusted_Penalty>
8.99105468737949e-06

> <i_epik_Tot_Q>
1

> <i_epik_Tot_abs_Q>
1

$$$$
