5caq_ligand
                    3D
 Schrodinger Suite 2020-3.
 56 59  0  0  1  0            999 V2000
  -52.7160    1.3730  -19.6110 C   0  0  0  0  0  0
  -53.7120    2.3380  -19.7850 C   0  0  0  0  0  0
  -50.7120   -1.1740  -21.2660 C   0  0  0  0  0  0
  -53.9860    1.7650  -22.0390 C   0  0  0  0  0  0
  -52.9670    0.8260  -21.9580 C   0  0  0  0  0  0
  -52.3360    0.6060  -20.7330 C   0  0  0  0  0  0
  -51.2020   -2.6190  -21.1340 C   0  0  0  0  0  0
  -49.2340   -0.9420  -21.5560 C   0  0  0  0  0  0
  -51.9310    0.9620  -18.5800 N   0  0  0  0  0  0
  -50.1270   -0.6150  -18.0300 C   0  0  0  0  0  0
  -51.1090    0.0310  -18.9770 C   0  0  0  0  0  0
  -54.3140    2.4820  -20.9610 N   0  3  0  0  0  0
  -51.3300   -0.2340  -20.3180 N   0  0  0  0  0  0
  -54.6320    2.0420  -23.2530 N   0  0  0  0  0  0
  -54.7720    1.1860  -24.3440 C   0  0  0  0  0  0
  -55.9330    1.2570  -25.1350 C   0  0  0  0  0  0
  -56.0550    0.4000  -26.2200 C   0  0  0  0  0  0
  -55.0700   -0.4610  -26.4710 N   0  0  0  0  0  0
  -53.9730   -0.5350  -25.7030 C   0  0  0  0  0  0
  -53.8260    0.2990  -24.6680 N   0  0  0  0  0  0
  -52.9610   -1.4520  -25.9940 N   0  0  0  0  0  0
  -51.7870   -1.5820  -25.0880 C   0  0  0  0  0  0
  -50.4760   -1.5250  -25.8940 C   0  0  0  0  0  0
  -50.5320   -2.5790  -27.0240 C   0  0  1  0  0  0
  -51.7000   -2.2680  -27.9810 C   0  0  1  0  0  0
  -53.0320   -2.2840  -27.2260 C   0  0  0  0  0  0
  -51.5560   -0.9550  -28.4310 F   0  0  0  0  0  0
  -49.3080   -2.5650  -27.7710 O   0  0  0  0  0  0
  -48.4450   -3.6800  -27.5440 C   0  0  0  0  0  0
  -53.9972    2.9775  -18.9496 H   0  0  0  0  0  0
  -51.1573   -0.8455  -22.2167 H   0  0  0  0  0  0
  -52.6628    0.2661  -22.8423 H   0  0  0  0  0  0
  -50.6905   -3.2489  -21.8767 H   0  0  0  0  0  0
  -52.2876   -2.6553  -21.3077 H   0  0  0  0  0  0
  -50.9798   -2.9906  -20.1228 H   0  0  0  0  0  0
  -48.8780   -1.6970  -22.2724 H   0  0  0  0  0  0
  -48.6597   -1.0238  -20.6214 H   0  0  0  0  0  0
  -49.0975    0.0623  -21.9836 H   0  0  0  0  0  0
  -50.2221   -0.1569  -17.0345 H   0  0  0  0  0  0
  -49.1038   -0.4669  -18.4056 H   0  0  0  0  0  0
  -50.3396   -1.6920  -17.9598 H   0  0  0  0  0  0
  -55.0965    3.0256  -23.4170 H   0  0  0  0  0  0
  -56.7220    1.9715  -24.9003 H   0  0  0  0  0  0
  -56.9404    0.4309  -26.8549 H   0  0  0  0  0  0
  -51.7942   -0.7590  -24.3582 H   0  0  0  0  0  0
  -51.8386   -2.5438  -24.5566 H   0  0  0  0  0  0
  -50.3563   -0.5217  -26.3288 H   0  0  0  0  0  0
  -49.6268   -1.7400  -25.2286 H   0  0  0  0  0  0
  -50.6142   -3.5917  -26.6025 H   0  0  0  0  0  0
  -51.6863   -2.9452  -28.8477 H   0  0  0  0  0  0
  -53.2690   -3.3231  -26.9536 H   0  0  0  0  0  0
  -53.8165   -1.8908  -27.8893 H   0  0  0  0  0  0
  -47.5399   -3.5745  -28.1601 H   0  0  0  0  0  0
  -48.9673   -4.6092  -27.8157 H   0  0  0  0  0  0
  -48.1631   -3.7151  -26.4813 H   0  0  0  0  0  0
  -55.1225    3.2185  -21.0785 H   0  0  0  0  0  0
  1  2  2  0  0  0
  1  6  1  0  0  0
  1  9  1  0  0  0
  2 12  1  0  0  0
  2 30  1  0  0  0
  3  7  1  0  0  0
  3  8  1  0  0  0
  3 13  1  0  0  0
  3 31  1  0  0  0
  4  5  1  0  0  0
  4 12  2  0  0  0
  4 14  1  0  0  0
  5  6  2  0  0  0
  5 32  1  0  0  0
  6 13  1  0  0  0
  7 33  1  0  0  0
  7 34  1  0  0  0
  7 35  1  0  0  0
  8 36  1  0  0  0
  8 37  1  0  0  0
  8 38  1  0  0  0
  9 11  2  0  0  0
 10 11  1  0  0  0
 10 39  1  0  0  0
 10 40  1  0  0  0
 10 41  1  0  0  0
 11 13  1  0  0  0
 12 56  1  0  0  0
 14 15  1  0  0  0
 14 42  1  0  0  0
 15 16  2  0  0  0
 15 20  1  0  0  0
 16 17  1  0  0  0
 16 43  1  0  0  0
 17 18  2  0  0  0
 17 44  1  0  0  0
 18 19  1  0  0  0
 19 20  2  0  0  0
 19 21  1  0  0  0
 21 22  1  0  0  0
 21 26  1  0  0  0
 22 23  1  0  0  0
 22 45  1  0  0  0
 22 46  1  0  0  0
 23 24  1  0  0  0
 23 47  1  0  0  0
 23 48  1  0  0  0
 24 25  1  0  0  0
 24 28  1  0  0  0
 24 49  1  0  0  0
 25 26  1  0  0  0
 25 27  1  0  0  0
 25 50  1  0  0  0
 26 51  1  0  0  0
 26 52  1  0  0  0
 28 29  1  0  0  0
 29 53  1  0  0  0
 29 54  1  0  0  0
 29 55  1  0  0  0
M  CHG  1  12   1
M  END
> <s_m_source_file>
../5caq_ligand.sdf

> <i_m_source_file_index>
1

> <s_epik_input>
W0NIM11bQ0hdKFtDSDNdKW4oYyhuMSlbQ0gzXSljKGMxMilbY0hdYyhuW2NIXTIpW05IXWMzW2NIXVtjSF1uYyhuMylONFtDSDJdW0NIMl1bQ0BASF0oW0NASF0oRilbQ0gyXTQpT1tDSDNd

> <s_epik_cmdline>
J2VwaWtfYXBwJywgJy1pbWFlJywgJ2xpZ2FuZF9wcm8ubWFlJywgJy1vbWFlJywgJ2xpZ2FuZF9wcmVwLm1hZScsICctbXMnLCAnMScsICctcGgnLCAnNycsICctcGh0JywgJzAuNScsICctbnQn

> <r_lp_tautomer_probability>
1

> <r_epik_Ionization_Penalty>
  0.1981

> <r_epik_Ionization_Penalty_Charging>
  0.0003

> <r_epik_Ionization_Penalty_Neutral>
  0.1978

> <r_epik_State_Penalty>
 -0.0000

> <r_epik_Charging_Adjusted_Penalty>
0.000298980161291786

> <i_epik_Tot_Q>
1

> <i_epik_Tot_abs_Q>
1

$$$$
