5cau_ligand
                    3D
 Schrodinger Suite 2020-3.
 59 62  0  0  1  0            999 V2000
  -49.6030   -1.0120  -21.9970 C   0  0  0  0  0  0
  -52.7440    1.0990  -19.7160 C   0  0  0  0  0  0
  -53.7210    2.0750  -19.8810 C   0  0  0  0  0  0
  -53.9950    1.4740  -22.1210 C   0  0  0  0  0  0
  -53.0030    0.4930  -22.0470 C   0  0  0  0  0  0
  -52.3640    0.2850  -20.8170 C   0  0  0  0  0  0
  -50.6690   -1.6110  -21.0870 C   0  0  2  0  0  0
  -51.5250   -2.7360  -21.6940 C   0  0  0  0  0  0
  -51.1770   -0.2280  -19.0130 C   0  0  0  0  0  0
  -50.1140   -0.1730  -16.7040 C   0  0  0  0  0  0
  -50.1770   -0.8640  -18.0690 C   0  0  1  0  0  0
  -51.9920    0.7190  -18.6640 N   0  0  0  0  0  0
  -54.2970    2.2230  -21.0590 N   0  0  0  0  0  0
  -51.3960   -0.5730  -20.3300 N   0  0  0  0  0  0
  -50.1770   -0.3040  -23.0390 F   0  0  0  0  0  0
  -48.8080   -0.1400  -21.2550 F   0  0  0  0  0  0
  -48.8150   -2.0260  -22.5250 F   0  0  0  0  0  0
  -54.6860    1.7850  -23.2900 N   0  0  0  0  0  0
  -54.8980    1.0050  -24.4110 C   0  0  0  0  0  0
  -56.1110    1.1230  -25.1090 C   0  0  0  0  0  0
  -56.2620    0.3410  -26.2460 C   0  0  0  0  0  0
  -55.2910   -0.4890  -26.6260 N   0  0  0  0  0  0
  -54.1490   -0.5950  -25.9380 C   0  0  0  0  0  0
  -53.9610    0.1750  -24.8650 N   0  0  0  0  0  0
  -53.0950   -1.4080  -26.3760 N   0  0  0  0  0  0
  -53.1940   -2.1540  -27.6530 C   0  0  0  0  0  0
  -51.8190   -2.2230  -28.3440 C   0  0  0  0  0  0
  -50.7440   -2.7320  -27.3600 C   0  0  2  0  0  0
  -50.6940   -1.8630  -26.0800 C   0  0  2  0  0  0
  -52.0740   -1.8560  -25.3980 C   0  0  0  0  0  0
  -50.3550   -0.5590  -26.4610 F   0  0  0  0  0  0
  -49.4770   -2.6730  -28.0180 O   0  0  0  0  0  0
  -48.5890   -3.7410  -27.6710 C   0  0  0  0  0  0
  -50.5880   -2.2060  -17.8730 O   0  0  0  0  0  0
  -54.0084    2.7121  -19.0446 H   0  0  0  0  0  0
  -52.7328   -0.0957  -22.9237 H   0  0  0  0  0  0
  -50.1285   -2.1463  -20.2924 H   0  0  0  0  0  0
  -50.8747   -3.4431  -22.2298 H   0  0  0  0  0  0
  -52.2539   -2.3042  -22.3956 H   0  0  0  0  0  0
  -52.0584   -3.2650  -20.8905 H   0  0  0  0  0  0
  -49.7961    0.8717  -16.8362 H   0  0  0  0  0  0
  -49.3921   -0.6973  -16.0606 H   0  0  0  0  0  0
  -51.1085   -0.1971  -16.2346 H   0  0  0  0  0  0
  -49.1768   -0.8529  -18.5268 H   0  0  0  0  0  0
  -55.1546    2.7735  -23.4055 H   0  0  0  0  0  0
  -56.8982    1.7980  -24.7732 H   0  0  0  0  0  0
  -57.1794    0.4062  -26.8310 H   0  0  0  0  0  0
  -53.5460   -3.1769  -27.4537 H   0  0  0  0  0  0
  -53.9048   -1.6452  -28.3207 H   0  0  0  0  0  0
  -51.8733   -2.9108  -29.2008 H   0  0  0  0  0  0
  -51.5348   -1.2204  -28.6961 H   0  0  0  0  0  0
  -50.9213   -3.7847  -27.0948 H   0  0  0  0  0  0
  -49.9102   -2.1806  -25.3766 H   0  0  0  0  0  0
  -52.0601   -1.1668  -24.5408 H   0  0  0  0  0  0
  -52.3201   -2.8699  -25.0494 H   0  0  0  0  0  0
  -47.6417   -3.6223  -28.2173 H   0  0  0  0  0  0
  -49.0496   -4.7029  -27.9403 H   0  0  0  0  0  0
  -48.3935   -3.7183  -26.5888 H   0  0  0  0  0  0
  -50.6968   -2.8795  -18.7359 H   0  0  0  0  0  0
  1  7  1  0  0  0
  1 15  1  0  0  0
  1 16  1  0  0  0
  1 17  1  0  0  0
  2  3  2  0  0  0
  2  6  1  0  0  0
  2 12  1  0  0  0
  3 13  1  0  0  0
  3 35  1  0  0  0
  4  5  1  0  0  0
  4 13  2  0  0  0
  4 18  1  0  0  0
  5  6  2  0  0  0
  5 36  1  0  0  0
  6 14  1  0  0  0
  7  8  1  0  0  0
  7 14  1  0  0  0
  7 37  1  0  0  0
  8 38  1  0  0  0
  8 39  1  0  0  0
  8 40  1  0  0  0
  9 11  1  0  0  0
  9 12  2  0  0  0
  9 14  1  0  0  0
 10 11  1  0  0  0
 10 41  1  0  0  0
 10 42  1  0  0  0
 10 43  1  0  0  0
 11 34  1  0  0  0
 11 44  1  0  0  0
 18 19  1  0  0  0
 18 45  1  0  0  0
 19 20  2  0  0  0
 19 24  1  0  0  0
 20 21  1  0  0  0
 20 46  1  0  0  0
 21 22  2  0  0  0
 21 47  1  0  0  0
 22 23  1  0  0  0
 23 24  2  0  0  0
 23 25  1  0  0  0
 25 26  1  0  0  0
 25 30  1  0  0  0
 26 27  1  0  0  0
 26 48  1  0  0  0
 26 49  1  0  0  0
 27 28  1  0  0  0
 27 50  1  0  0  0
 27 51  1  0  0  0
 28 29  1  0  0  0
 28 32  1  0  0  0
 28 52  1  0  0  0
 29 30  1  0  0  0
 29 31  1  0  0  0
 29 53  1  0  0  0
 30 54  1  0  0  0
 30 55  1  0  0  0
 32 33  1  0  0  0
 33 56  1  0  0  0
 33 57  1  0  0  0
 33 58  1  0  0  0
 34 59  1  0  0  0
M  END
> <s_m_source_file>
../5cau_ligand.sdf

> <i_m_source_file_index>
1

> <s_epik_input>
W0NIM11bQ0BASF0oW09IXSljKG4xKW4oW0NASF0oQyhGKShGKUYpW0NIM10pYyhjMTIpW2NIXWMobltjSF0yKVtOSF1jM1tjSF1bY0hdbmMobjMpTjRbQ0gyXVtDSDJdW0NASF0oW0NAQEhdKEYpW0NIMl00KU9bQ0gzXQ==

> <s_epik_cmdline>
J2VwaWtfYXBwJywgJy1pbWFlJywgJ2xpZ2FuZF9wcm8ubWFlJywgJy1vbWFlJywgJ2xpZ2FuZF9wcmVwLm1hZScsICctbXMnLCAnMScsICctcGgnLCAnNycsICctcGh0JywgJzAuNScsICctbnQn

> <r_lp_tautomer_probability>
1

> <r_epik_Ionization_Penalty>
  0.1585

> <r_epik_Ionization_Penalty_Charging>
  0.0882

> <r_epik_Ionization_Penalty_Neutral>
  0.0703

> <r_epik_State_Penalty>
 -0.0000

> <r_epik_Charging_Adjusted_Penalty>
0.0881952138691893

> <i_epik_Tot_Q>
0

> <i_epik_Tot_abs_Q>
0

$$$$
