5cav_ligand
                    3D
 Schrodinger Suite 2020-3.
 59 62  0  0  1  0            999 V2000
  -49.7640   -1.3820  -21.5290 C   0  0  0  0  0  0
  -52.9230    0.9730  -19.4470 C   0  0  0  0  0  0
  -53.8650    1.9770  -19.6830 C   0  0  0  0  0  0
  -54.1440    1.2900  -21.8900 C   0  0  0  0  0  0
  -53.1900    0.2710  -21.7430 C   0  0  0  0  0  0
  -52.5580    0.0910  -20.4990 C   0  0  0  0  0  0
  -50.8730   -1.8900  -20.6000 C   0  0  2  0  0  0
  -51.7820   -2.8800  -21.3390 C   0  0  0  0  0  0
  -51.4150   -0.3720  -18.6440 C   0  0  0  0  0  0
  -50.0430   -0.0170  -16.5540 C   0  0  0  0  0  0
  -50.4680   -1.0090  -17.6410 C   0  0  1  0  0  0
  -52.2060    0.6240  -18.3580 N   0  0  0  0  0  0
  -54.4320    2.0920  -20.8680 N   0  0  0  0  0  0
  -51.6060   -0.7710  -19.9510 N   0  0  0  0  0  0
  -49.0110   -0.3920  -20.8910 F   0  0  0  0  0  0
  -48.9130   -2.4550  -21.8220 F   0  0  0  0  0  0
  -50.3060   -0.8570  -22.7080 F   0  0  0  0  0  0
  -54.8200    1.5940  -23.0790 N   0  0  0  0  0  0
  -54.9520    0.8260  -24.2280 C   0  0  0  0  0  0
  -56.1270    0.9370  -24.9910 C   0  0  0  0  0  0
  -56.2470    0.1510  -26.1290 C   0  0  0  0  0  0
  -55.2470   -0.6600  -26.4730 N   0  0  0  0  0  0
  -54.1420   -0.7650  -25.7270 C   0  0  0  0  0  0
  -53.9860    0.0030  -24.6460 N   0  0  0  0  0  0
  -53.1050   -1.6170  -26.1060 N   0  0  0  0  0  0
  -52.2620   -2.2180  -25.0550 C   0  0  0  0  0  0
  -50.8370   -2.3070  -25.6240 C   0  0  0  0  0  0
  -50.8480   -3.0610  -26.9750 C   0  0  1  0  0  0
  -51.9230   -2.5240  -27.9540 C   0  0  1  0  0  0
  -53.2910   -2.4940  -27.2760 C   0  0  0  0  0  0
  -51.6420   -1.2060  -28.3330 F   0  0  0  0  0  0
  -49.5470   -2.9420  -27.5760 O   0  0  0  0  0  0
  -48.7300   -4.1190  -27.6160 C   0  0  0  0  0  0
  -51.1150   -2.1340  -17.0390 O   0  0  0  0  0  0
  -54.1326    2.6685  -18.8841 H   0  0  0  0  0  0
  -52.9411   -0.3750  -22.5849 H   0  0  0  0  0  0
  -50.4270   -2.4230  -19.7474 H   0  0  0  0  0  0
  -51.1690   -3.6743  -21.7899 H   0  0  0  0  0  0
  -52.3350   -2.3506  -22.1289 H   0  0  0  0  0  0
  -52.4938   -3.3250  -20.6282 H   0  0  0  0  0  0
  -49.5460    0.8467  -17.0199 H   0  0  0  0  0  0
  -49.3469   -0.5101  -15.8595 H   0  0  0  0  0  0
  -50.9310    0.3247  -16.0020 H   0  0  0  0  0  0
  -49.5788   -1.3924  -18.1628 H   0  0  0  0  0  0
  -55.3400    2.5575  -23.1851 H   0  0  0  0  0  0
  -56.9226    1.6217  -24.6972 H   0  0  0  0  0  0
  -57.1513    0.1968  -26.7359 H   0  0  0  0  0  0
  -52.2849   -1.5816  -24.1581 H   0  0  0  0  0  0
  -52.6453   -3.2182  -24.8048 H   0  0  0  0  0  0
  -50.4407   -1.2929  -25.7806 H   0  0  0  0  0  0
  -50.1922   -2.8472  -24.9152 H   0  0  0  0  0  0
  -51.0280   -4.1321  -26.8010 H   0  0  0  0  0  0
  -51.9143   -3.1134  -28.8827 H   0  0  0  0  0  0
  -53.6035   -3.4934  -26.9391 H   0  0  0  0  0  0
  -54.0648   -2.0699  -27.9328 H   0  0  0  0  0  0
  -47.7704   -3.8830  -28.0992 H   0  0  0  0  0  0
  -49.2457   -4.9040  -28.1886 H   0  0  0  0  0  0
  -48.5469   -4.4733  -26.5908 H   0  0  0  0  0  0
  -51.4906   -2.9542  -17.6684 H   0  0  0  0  0  0
  1  7  1  0  0  0
  1 15  1  0  0  0
  1 16  1  0  0  0
  1 17  1  0  0  0
  2  3  2  0  0  0
  2  6  1  0  0  0
  2 12  1  0  0  0
  3 13  1  0  0  0
  3 35  1  0  0  0
  4  5  1  0  0  0
  4 13  2  0  0  0
  4 18  1  0  0  0
  5  6  2  0  0  0
  5 36  1  0  0  0
  6 14  1  0  0  0
  7  8  1  0  0  0
  7 14  1  0  0  0
  7 37  1  0  0  0
  8 38  1  0  0  0
  8 39  1  0  0  0
  8 40  1  0  0  0
  9 11  1  0  0  0
  9 12  2  0  0  0
  9 14  1  0  0  0
 10 11  1  0  0  0
 10 41  1  0  0  0
 10 42  1  0  0  0
 10 43  1  0  0  0
 11 34  1  0  0  0
 11 44  1  0  0  0
 18 19  1  0  0  0
 18 45  1  0  0  0
 19 20  2  0  0  0
 19 24  1  0  0  0
 20 21  1  0  0  0
 20 46  1  0  0  0
 21 22  2  0  0  0
 21 47  1  0  0  0
 22 23  1  0  0  0
 23 24  2  0  0  0
 23 25  1  0  0  0
 25 26  1  0  0  0
 25 30  1  0  0  0
 26 27  1  0  0  0
 26 48  1  0  0  0
 26 49  1  0  0  0
 27 28  1  0  0  0
 27 50  1  0  0  0
 27 51  1  0  0  0
 28 29  1  0  0  0
 28 32  1  0  0  0
 28 52  1  0  0  0
 29 30  1  0  0  0
 29 31  1  0  0  0
 29 53  1  0  0  0
 30 54  1  0  0  0
 30 55  1  0  0  0
 32 33  1  0  0  0
 33 56  1  0  0  0
 33 57  1  0  0  0
 33 58  1  0  0  0
 34 59  1  0  0  0
M  END
> <s_m_source_file>
../5cav_ligand.sdf

> <i_m_source_file_index>
1

> <s_epik_input>
W0NIM11bQ0BASF0oW09IXSljKG4xKW4oW0NASF0oQyhGKShGKUYpW0NIM10pYyhjMTIpW2NIXWMobltjSF0yKVtOSF1jM1tjSF1bY0hdbmMobjMpTjRbQ0gyXVtDSDJdW0NAQEhdKFtDQEhdKEYpW0NIMl00KU9bQ0gzXQ==

> <s_epik_cmdline>
J2VwaWtfYXBwJywgJy1pbWFlJywgJ2xpZ2FuZF9wcm8ubWFlJywgJy1vbWFlJywgJ2xpZ2FuZF9wcmVwLm1hZScsICctbXMnLCAnMScsICctcGgnLCAnNycsICctcGh0JywgJzAuNScsICctbnQn

> <r_lp_tautomer_probability>
1

> <r_epik_Ionization_Penalty>
  0.1585

> <r_epik_Ionization_Penalty_Charging>
  0.0882

> <r_epik_Ionization_Penalty_Neutral>
  0.0703

> <r_epik_State_Penalty>
 -0.0000

> <r_epik_Charging_Adjusted_Penalty>
0.0881952138691891

> <i_epik_Tot_Q>
0

> <i_epik_Tot_abs_Q>
0

$$$$
