5cbm_ligand
                    3D
 Schrodinger Suite 2020-3.
 29 29  0  0  1  0            999 V2000
  172.1170   12.6210   85.6860 N   0  3  0  0  0  0
  171.9530   14.6640   84.3600 C   0  0  0  0  0  0
  171.3130   16.9530   84.7400 C   0  0  0  0  0  0
  170.2580   15.6830   83.0050 C   0  0  0  0  0  0
  175.6560   16.1580   84.7710 C   0  0  0  0  0  0
  175.3610   14.7920   84.1910 C   0  0  0  0  0  0
  174.4380   13.8050   85.3710 P   0  0  2  0  0  0
  174.3940   14.5080   86.7780 O   0  5  0  0  0  0
  175.1090   12.5020   85.5380 O   0  0  0  0  0  0
  172.7830   13.4400   84.7140 C   0  0  1  0  0  0
  172.0860   15.8450   85.0700 C   0  0  0  0  0  0
  170.3910   16.8640   83.7070 C   0  0  0  0  0  0
  171.0300   14.5850   83.3330 C   0  0  0  0  0  0
  175.1310   17.1690   83.7960 C   0  0  0  0  0  0
  174.4830   18.1650   84.2020 O   0  5  0  0  0  0
  175.3430   16.9850   82.5740 O   0  0  0  0  0  0
  171.1066   12.3749   85.3276 H   0  0  0  0  0  0
  172.0455   13.1669   86.6383 H   0  0  0  0  0  0
  172.6885   11.6933   85.8372 H   0  0  0  0  0  0
  171.4309   17.8866   85.2901 H   0  0  0  0  0  0
  169.5401   15.6162   82.1875 H   0  0  0  0  0  0
  175.1543   16.2591   85.7447 H   0  0  0  0  0  0
  176.7418   16.2731   84.9044 H   0  0  0  0  0  0
  174.7666   14.9043   83.2723 H   0  0  0  0  0  0
  176.3066   14.2815   83.9558 H   0  0  0  0  0  0
  172.6662   12.8746   83.7777 H   0  0  0  0  0  0
  172.7998   15.9067   85.8914 H   0  0  0  0  0  0
  169.7732   17.7246   83.4505 H   0  0  0  0  0  0
  170.9111   13.6531   82.7803 H   0  0  0  0  0  0
  1 10  1  0  0  0
  1 17  1  0  0  0
  1 18  1  0  0  0
  1 19  1  0  0  0
  2 10  1  0  0  0
  2 11  2  0  0  0
  2 13  1  0  0  0
  3 11  1  0  0  0
  3 12  2  0  0  0
  3 20  1  0  0  0
  4 12  1  0  0  0
  4 13  2  0  0  0
  4 21  1  0  0  0
  5  6  1  0  0  0
  5 14  1  0  0  0
  5 22  1  0  0  0
  5 23  1  0  0  0
  6  7  1  0  0  0
  6 24  1  0  0  0
  6 25  1  0  0  0
  7  8  1  0  0  0
  7  9  2  0  0  0
  7 10  1  0  0  0
 10 26  1  0  0  0
 11 27  1  0  0  0
 12 28  1  0  0  0
 13 29  1  0  0  0
 14 15  1  0  0  0
 14 16  2  0  0  0
M  CHG  3   1   1   8  -1  15  -1
M  END
> <s_m_source_file>
../5cbm_ligand.sdf

> <i_m_source_file_index>
1

> <s_epik_input>
W09IXUMoPU8pW0NIMl1bQ0gyXVtQQEBdKD1PKShbT0hdKVtDQEBIXShbTkgzK10pYzFbY0hdW2NIXVtjSF1bY0hdW2NIXTE=

> <s_epik_cmdline>
J2VwaWtfYXBwJywgJy1pbWFlJywgJ2xpZ2FuZF9wcm8ubWFlJywgJy1vbWFlJywgJ2xpZ2FuZF9wcmVwLm1hZScsICctbXMnLCAnMScsICctcGgnLCAnNycsICctcGh0JywgJzAuNScsICctbnQn

> <r_epik_Ionization_Penalty>
  0.0242

> <r_epik_Ionization_Penalty_Charging>
  0.0242

> <r_epik_Ionization_Penalty_Neutral>
  0.0000

> <r_epik_State_Penalty>
  0.0173

> <r_epik_Charging_Adjusted_Penalty>
0.0414360987281793

> <i_epik_Tot_Q>
-1

> <i_epik_Tot_abs_Q>
3

$$$$
