5cbr_ligand
                    3D
 Schrodinger Suite 2020-3.
 33 34  0  0  1  0            999 V2000
    6.7590   11.9520   48.0490 N   0  3  0  0  0  0
    8.6980   13.7030   49.2220 C   0  0  0  0  0  0
    8.2450   14.6080   50.1950 C   0  0  0  0  0  0
    9.4960   12.6150   49.5910 C   0  0  0  0  0  0
    9.8400   12.4600   50.9430 C   0  0  0  0  0  0
    9.3950   13.3630   51.9140 C   0  0  0  0  0  0
    8.1190   15.4480   52.5470 C   0  0  0  0  0  0
    7.2570   17.3450   54.3730 C   0  0  0  0  0  0
    6.1180   14.7990   45.7610 O   0  0  0  0  0  0
    6.3810   13.6300   46.1340 C   0  0  0  0  0  0
    6.3260   12.5740   45.4440 O   0  5  0  0  0  0
    6.8430   13.3920   47.6040 C   0  0  2  0  0  0
    8.2850   13.8890   47.7850 C   0  0  0  0  0  0
   10.8240   11.1190   51.3900 Cl  0  0  0  0  0  0
    9.8380   13.1150   53.5870 Cl  0  0  0  0  0  0
    8.5870   14.4550   51.5580 C   0  0  0  0  0  0
    9.0470   16.1540   53.3330 C   0  0  0  0  0  0
    6.7700   15.7680   52.7280 C   0  0  0  0  0  0
    6.3290   16.6990   53.6200 N   0  3  0  0  0  0
    8.6170   17.0960   54.2650 C   0  0  0  0  0  0
    9.5470   17.7460   55.0220 O   0  5  0  0  0  0
    5.7285   11.5886   47.9223 H   0  0  0  0  0  0
    7.0462   11.8782   49.1083 H   0  0  0  0  0  0
    7.4411   11.3399   47.4407 H   0  0  0  0  0  0
    7.6166   15.4459   49.8932 H   0  0  0  0  0  0
    9.8437   11.9018   48.8436 H   0  0  0  0  0  0
    6.9184   18.0905   55.0925 H   0  0  0  0  0  0
    6.1482   13.9387   48.2585 H   0  0  0  0  0  0
    8.3431   14.9555   47.5219 H   0  0  0  0  0  0
    8.9580   13.3133   47.1326 H   0  0  0  0  0  0
   10.1132   15.9624   53.2119 H   0  0  0  0  0  0
    6.0306   15.2440   52.1224 H   0  0  0  0  0  0
    5.2614   16.9343   53.7416 H   0  0  0  0  0  0
  1 12  1  0  0  0
  1 22  1  0  0  0
  1 23  1  0  0  0
  1 24  1  0  0  0
  2  3  2  0  0  0
  2  4  1  0  0  0
  2 13  1  0  0  0
  3 16  1  0  0  0
  3 25  1  0  0  0
  4  5  2  0  0  0
  4 26  1  0  0  0
  5  6  1  0  0  0
  5 14  1  0  0  0
  6 15  1  0  0  0
  6 16  2  0  0  0
  7 16  1  0  0  0
  7 17  2  0  0  0
  7 18  1  0  0  0
  8 19  1  0  0  0
  8 20  2  0  0  0
  8 27  1  0  0  0
  9 10  2  0  0  0
 10 11  1  0  0  0
 10 12  1  0  0  0
 12 13  1  0  0  0
 12 28  1  0  0  0
 13 29  1  0  0  0
 13 30  1  0  0  0
 17 20  1  0  0  0
 17 31  1  0  0  0
 18 19  2  0  0  0
 18 32  1  0  0  0
 19 33  1  0  0  0
 20 21  1  0  0  0
M  CHG  4   1   1  11  -1  19   1  21  -1
M  END
> <s_m_source_file>
../5cbr_ligand.sdf

> <i_m_source_file_index>
1

> <s_epik_input>
Tz1DKFtPSF0pW0NAQEhdKFtOSDMrXSlbQ0gyXWMxW2NIXWMoYyhDbCljKENsKVtjSF0xKS1jMltjSF1jKFtPSF0pW2NIXW5bY0hdMg==

> <s_epik_cmdline>
J2VwaWtfYXBwJywgJy1pbWFlJywgJ2xpZ2FuZF9wcm8ubWFlJywgJy1vbWFlJywgJ2xpZ2FuZF9wcmVwLm1hZScsICctbXMnLCAnMScsICctcGgnLCAnNycsICctcGh0JywgJzAuNScsICctbnQn

> <r_lp_tautomer_probability>
0.56342

> <r_epik_Ionization_Penalty>
  0.0255

> <r_epik_Ionization_Penalty_Charging>
  0.0255

> <r_epik_Ionization_Penalty_Neutral>
  0.0000

> <r_epik_State_Penalty>
  0.3387

> <r_epik_Charging_Adjusted_Penalty>
0.364207136536463

> <i_epik_Tot_Q>
0

> <i_epik_Tot_abs_Q>
4

$$$$
