5ccl_ligand
                    3D
 Schrodinger Suite 2020-3.
 37 39  0  0  1  0            999 V2000
   16.2170    4.5520   14.4640 O   0  0  0  0  0  0
   16.2430    4.6490   15.7010 C   0  0  0  0  0  0
   17.1730    3.9350   16.3710 N   0  0  0  0  0  0
   18.2170    3.1400   15.6830 C   0  0  0  0  0  0
   17.6640    1.8030   15.2500 C   0  0  0  0  0  0
   18.7560    0.9550   14.6350 C   0  0  0  0  0  0
   19.9210    0.8300   15.5210 N   0  3  0  0  0  0
   20.4930    2.1100   15.8990 C   0  0  0  0  0  0
   19.4330    2.9660   16.5820 C   0  0  0  0  0  0
   15.1960    5.4370   16.3980 C   0  0  0  0  0  0
   14.7520    6.5820   15.7280 C   0  0  0  0  0  0
   13.7500    7.3470   16.2930 C   0  0  0  0  0  0
   13.1420    6.9110   17.4600 C   0  0  0  0  0  0
   12.1350    7.8060   17.8140 N   0  0  0  0  0  0
   11.9920    8.8110   16.8700 C   0  0  0  0  0  0
   11.1320    9.6670   16.8590 O   0  0  0  0  0  0
   13.0470    8.5700   15.8210 C   0  0  0  0  0  0
   13.5230    5.7570   18.1540 C   0  0  0  0  0  0
   14.5490    5.0140   17.5680 C   0  0  0  0  0  0
   17.1350    3.9590   17.4701 H   0  0  0  0  0  0
   18.5141    3.6984   14.7830 H   0  0  0  0  0  0
   17.2508    1.2770   16.1232 H   0  0  0  0  0  0
   16.8691    1.9586   14.5057 H   0  0  0  0  0  0
   18.3673   -0.0543   14.4345 H   0  0  0  0  0  0
   19.0893    1.4135   13.6923 H   0  0  0  0  0  0
   19.6247    0.3129   16.4455 H   0  0  0  0  0  0
   20.7073    0.2520   15.0135 H   0  0  0  0  0  0
   21.3314    1.9466   16.5922 H   0  0  0  0  0  0
   20.8565    2.6291   14.9999 H   0  0  0  0  0  0
   19.8654    3.9517   16.8088 H   0  0  0  0  0  0
   19.1296    2.4746   17.5182 H   0  0  0  0  0  0
   15.1912    6.8670   14.7720 H   0  0  0  0  0  0
   11.5711    7.6585   18.7469 H   0  0  0  0  0  0
   13.7634    9.4021   15.7545 H   0  0  0  0  0  0
   12.6102    8.3821   14.8291 H   0  0  0  0  0  0
   13.0501    5.4584   19.0896 H   0  0  0  0  0  0
   14.8563    4.0775   18.0334 H   0  0  0  0  0  0
  1  2  2  0  0  0
  2  3  1  0  0  0
  2 10  1  0  0  0
  3  4  1  0  0  0
  3 20  1  0  0  0
  4  5  1  0  0  0
  4  9  1  0  0  0
  4 21  1  0  0  0
  5  6  1  0  0  0
  5 22  1  0  0  0
  5 23  1  0  0  0
  6  7  1  0  0  0
  6 24  1  0  0  0
  6 25  1  0  0  0
  7  8  1  0  0  0
  7 26  1  0  0  0
  7 27  1  0  0  0
  8  9  1  0  0  0
  8 28  1  0  0  0
  8 29  1  0  0  0
  9 30  1  0  0  0
  9 31  1  0  0  0
 10 11  2  0  0  0
 10 19  1  0  0  0
 11 12  1  0  0  0
 11 32  1  0  0  0
 12 13  2  0  0  0
 12 17  1  0  0  0
 13 14  1  0  0  0
 13 18  1  0  0  0
 14 15  1  0  0  0
 14 33  1  0  0  0
 15 16  2  0  0  0
 15 17  1  0  0  0
 17 34  1  0  0  0
 17 35  1  0  0  0
 18 19  2  0  0  0
 18 36  1  0  0  0
 19 37  1  0  0  0
M  CHG  1   7   1
M  END
> <s_m_source_file>
../5ccl_ligand.sdf

> <i_m_source_file_index>
1

> <s_epik_input>
Tz1DKFtDSDJdMSlbTkhdYyhjMTIpW2NIXVtjSF1jKFtjSF0yKUMoPU8pW05IXVtDSF0zW0NIMl1bQ0gyXVtOSDIrXVtDSDJdW0NIMl0z

> <s_epik_cmdline>
J2VwaWtfYXBwJywgJy1pbWFlJywgJ2xpZ2FuZF9wcm8ubWFlJywgJy1vbWFlJywgJ2xpZ2FuZF9wcmVwLm1hZScsICctbXMnLCAnMScsICctcGgnLCAnNycsICctcGh0JywgJzAuNScsICctbnQn

> <r_lp_tautomer_probability>
1

> <r_epik_Ionization_Penalty>
  0.0001

> <r_epik_Ionization_Penalty_Charging>
  0.0001

> <r_epik_Ionization_Penalty_Neutral>
  0.0000

> <r_epik_State_Penalty>
 -0.0000

> <r_epik_Charging_Adjusted_Penalty>
0.000122018904366693

> <i_epik_Tot_Q>
1

> <i_epik_Tot_abs_Q>
1

$$$$
