5ccm_ligand
                    3D
 Schrodinger Suite 2020-3.
 74 79  0  0  1  0            999 V2000
   15.7800    3.2030   18.1470 Cl  0  0  0  0  0  0
   15.6240    4.6890   17.2660 C   0  0  0  0  0  0
   14.6270    5.5460   17.7370 C   0  0  0  0  0  0
   14.4320    6.7420   17.0900 C   0  0  0  0  0  0
   15.1860    7.1240   15.9940 C   0  0  0  0  0  0
   14.7250    8.4620   15.5260 C   0  0  0  0  0  0
   13.6010    8.7700   16.5080 C   0  0  0  0  0  0
   12.9080    9.7610   16.5150 O   0  0  0  0  0  0
   13.5080    7.7130   17.3910 N   0  0  0  0  0  0
   16.1840    6.2970   15.5120 C   0  0  0  0  0  0
   16.4210    5.0660   16.1560 C   0  0  0  0  0  0
   17.4670    4.2100   15.5480 C   0  0  0  0  0  0
   17.5600    4.1890   14.3300 O   0  0  0  0  0  0
   18.2940    3.3800   16.2350 N   0  0  0  0  0  0
   19.3120    2.4930   15.6620 C   0  0  2  0  0  0
   18.6560    1.2800   14.9400 C   0  0  0  0  0  0
   18.5250    0.0020   15.7880 C   0  0  2  0  0  0
   17.6050    0.1610   16.9880 C   0  0  0  0  0  0
   18.4940    0.8060   18.0470 C   0  0  0  0  0  0
   19.9190    0.8130   17.4800 C   0  0  2  0  0  0
   20.3440    2.0850   16.7310 C   0  0  0  0  0  0
   19.8420   -0.1900   16.4200 N   0  0  1  0  0  0
   20.4330   -1.7170   16.7030 S   0  0  0  0  0  0
   21.7680   -1.5240   17.2400 O   0  0  0  0  0  0
   19.3330   -2.3530   17.4140 O   0  0  0  0  0  0
   20.5960   -2.3040   15.1480 N   0  0  1  0  0  0
   21.5060   -1.5710   14.2440 C   0  0  0  0  0  0
   22.9260   -2.0970   14.4190 C   0  0  0  0  0  0
   22.9400   -3.6180   14.2440 C   0  0  0  0  0  0
   21.8790   -4.3730   15.0700 C   0  0  0  0  0  0
   20.4960   -3.7590   14.9370 C   0  0  0  0  0  0
   24.2790   -4.1440   14.4130 N   0  3  0  0  0  0
   25.0040   -4.0890   15.6750 C   0  0  0  0  0  0
   26.4390   -4.4220   15.3770 C   0  0  0  0  0  0
   26.8910   -5.7500   15.4790 C   0  0  0  0  0  0
   28.2230   -6.0500   15.1840 C   0  0  0  0  0  0
   29.1000   -5.0400   14.7800 C   0  0  0  0  0  0
   28.6560   -3.7190   14.6700 C   0  0  0  0  0  0
   27.3260   -3.4110   14.9640 C   0  0  0  0  0  0
   14.0176    5.2722   18.5982 H   0  0  0  0  0  0
   15.5578    9.1781   15.5853 H   0  0  0  0  0  0
   14.3793    8.3871   14.4844 H   0  0  0  0  0  0
   12.8255    7.5776   18.2430 H   0  0  0  0  0  0
   16.7782    6.5926   14.6473 H   0  0  0  0  0  0
   18.1448    3.4146   17.3243 H   0  0  0  0  0  0
   19.8388    3.0952   14.9071 H   0  0  0  0  0  0
   17.6380    1.5493   14.6220 H   0  0  0  0  0  0
   19.2560    1.0096   14.0586 H   0  0  0  0  0  0
   18.1777   -0.8169   15.1408 H   0  0  0  0  0  0
   16.7531    0.8009   16.7146 H   0  0  0  0  0  0
   17.2360   -0.8270   17.3006 H   0  0  0  0  0  0
   18.1456    1.8307   18.2436 H   0  0  0  0  0  0
   18.4446    0.2176   18.9751 H   0  0  0  0  0  0
   20.6307    0.6399   18.3007 H   0  0  0  0  0  0
   21.3144    1.8937   16.2496 H   0  0  0  0  0  0
   20.4525    2.8972   17.4648 H   0  0  0  0  0  0
   21.1854   -1.7189   13.2022 H   0  0  0  0  0  0
   21.4791   -0.4986   14.4872 H   0  0  0  0  0  0
   23.5826   -1.6378   13.6653 H   0  0  0  0  0  0
   23.2897   -1.8430   15.4256 H   0  0  0  0  0  0
   22.7026   -3.8338   13.1918 H   0  0  0  0  0  0
   21.8215   -5.4165   14.7268 H   0  0  0  0  0  0
   22.1589   -4.3517   16.1336 H   0  0  0  0  0  0
   19.8228   -4.1934   15.6907 H   0  0  0  0  0  0
   20.0969   -3.9571   13.9313 H   0  0  0  0  0  0
   24.2807   -5.2211   14.1899 H   0  0  0  0  0  0
   24.9656   -3.6264   13.7269 H   0  0  0  0  0  0
   24.9215   -3.0784   16.1015 H   0  0  0  0  0  0
   24.5746   -4.8193   16.3767 H   0  0  0  0  0  0
   26.2061   -6.5402   15.7864 H   0  0  0  0  0  0
   28.5798   -7.0764   15.2693 H   0  0  0  0  0  0
   30.1370   -5.2837   14.5491 H   0  0  0  0  0  0
   29.3440   -2.9338   14.3565 H   0  0  0  0  0  0
   26.9738   -2.3835   14.8732 H   0  0  0  0  0  0
  1  2  1  0  0  0
  2  3  2  0  0  0
  2 11  1  0  0  0
  3  4  1  0  0  0
  3 40  1  0  0  0
  4  5  2  0  0  0
  4  9  1  0  0  0
  5  6  1  0  0  0
  5 10  1  0  0  0
  6  7  1  0  0  0
  6 41  1  0  0  0
  6 42  1  0  0  0
  7  8  2  0  0  0
  7  9  1  0  0  0
  9 43  1  0  0  0
 10 11  2  0  0  0
 10 44  1  0  0  0
 11 12  1  0  0  0
 12 13  2  0  0  0
 12 14  1  0  0  0
 14 15  1  0  0  0
 14 45  1  0  0  0
 15 16  1  0  0  0
 15 21  1  0  0  0
 15 46  1  0  0  0
 16 17  1  0  0  0
 16 47  1  0  0  0
 16 48  1  0  0  0
 17 18  1  0  0  0
 17 22  1  0  0  0
 17 49  1  0  0  0
 18 19  1  0  0  0
 18 50  1  0  0  0
 18 51  1  0  0  0
 19 20  1  0  0  0
 19 52  1  0  0  0
 19 53  1  0  0  0
 20 21  1  0  0  0
 20 22  1  0  0  0
 20 54  1  0  0  0
 21 55  1  0  0  0
 21 56  1  0  0  0
 22 23  1  0  0  0
 23 24  2  0  0  0
 23 25  2  0  0  0
 23 26  1  0  0  0
 26 27  1  0  0  0
 26 31  1  0  0  0
 27 28  1  0  0  0
 27 57  1  0  0  0
 27 58  1  0  0  0
 28 29  1  0  0  0
 28 59  1  0  0  0
 28 60  1  0  0  0
 29 30  1  0  0  0
 29 32  1  0  0  0
 29 61  1  0  0  0
 30 31  1  0  0  0
 30 62  1  0  0  0
 30 63  1  0  0  0
 31 64  1  0  0  0
 31 65  1  0  0  0
 32 33  1  0  0  0
 32 66  1  0  0  0
 32 67  1  0  0  0
 33 34  1  0  0  0
 33 68  1  0  0  0
 33 69  1  0  0  0
 34 35  2  0  0  0
 34 39  1  0  0  0
 35 36  1  0  0  0
 35 70  1  0  0  0
 36 37  2  0  0  0
 36 71  1  0  0  0
 37 38  1  0  0  0
 37 72  1  0  0  0
 38 39  2  0  0  0
 38 73  1  0  0  0
 39 74  1  0  0  0
M  CHG  1  32   1
M  END
> <s_m_source_file>
../5ccm_ligand.sdf

> <i_m_source_file_index>
1

> <s_epik_input>
Tz1DKFtOSF0xKVtDSDJdYyhjMTIpW2NIXWMoYyhDbClbY0hdMilDKD1PKVtOSF1bQ0BIXShbQ0gyXVtDQEhdMzQpW0NIMl1bQ0BASF0oW0NIMl1bQ0gyXTMpTjRTKD1PKSg9TylONVtDSDJdW0NIMl1bQ0hdKFtDSDJdW0NIMl01KVtOSDIrXVtDSDJdYzZbY0hdW2NIXVtjSF1bY0hdW2NIXTY=

> <s_epik_cmdline>
J2VwaWtfYXBwJywgJy1pbWFlJywgJ2xpZ2FuZF9wcm8ubWFlJywgJy1vbWFlJywgJ2xpZ2FuZF9wcmVwLm1hZScsICctbXMnLCAnMScsICctcGgnLCAnNycsICctcGh0JywgJzAuNScsICctbnQn

> <r_epik_Ionization_Penalty>
  0.0279

> <r_epik_Ionization_Penalty_Charging>
  0.0279

> <r_epik_Ionization_Penalty_Neutral>
  0.0000

> <r_epik_State_Penalty>
  0.0229

> <r_epik_Charging_Adjusted_Penalty>
0.0507644444273015

> <i_epik_Tot_Q>
1

> <i_epik_Tot_abs_Q>
1

$$$$
