5cf4_ligand
                    3D
 Schrodinger Suite 2020-3.
 60 64  0  0  1  0            999 V2000
    0.5860   45.5980    1.1590 C   0  0  0  0  0  0
   -0.3220   46.7010    1.5730 C   0  0  0  0  0  0
   -0.8930   48.5330   -0.9790 C   0  0  0  0  0  0
   -0.8180   47.5360   -3.3850 C   0  0  0  0  0  0
   -0.0070   49.8470   -2.7750 C   0  0  0  0  0  0
   -0.5870   46.0990   -3.0820 C   0  0  0  0  0  0
   -1.9650   46.5910   -3.3640 C   0  0  0  0  0  0
   -0.8250   51.0930   -2.7710 C   0  0  0  0  0  0
   -6.7000   44.4280    0.1240 C   0  0  0  0  0  0
   -3.5810   43.1820    5.7800 C   0  0  0  0  0  0
   -3.6700   46.3530    0.1020 C   0  0  0  0  0  0
   -2.7240   46.1200    1.1100 C   0  0  0  0  0  0
   -2.8630   45.3750    2.2140 N   0  0  0  0  0  0
   -4.0220   44.7160    2.3820 C   0  0  0  0  0  0
   -5.0170   44.7640    1.3750 C   0  0  0  0  0  0
   -4.8460   45.5810    0.2560 C   0  0  0  0  0  0
   -3.0910   47.2900   -0.7990 C   0  0  0  0  0  0
   -1.8210   47.5600   -0.3520 C   0  0  0  0  0  0
   -1.5820   46.8290    0.8100 N   0  0  0  0  0  0
   -6.2000   44.0490    1.2750 N   0  0  0  0  0  0
   -5.9480   45.3500   -0.5400 N   0  0  0  0  0  0
   -4.2040   44.0450    3.5310 N   0  0  0  0  0  0
   -6.2710   45.9690   -1.8200 C   0  0  0  0  0  0
   -0.4660   49.4190   -0.2500 O   0  0  0  0  0  0
   -0.6150   48.5560   -2.3130 N   0  0  0  0  0  0
   -0.4460   50.4520   -4.0640 C   0  0  0  0  0  0
   -3.2710   44.1350    4.6410 C   0  0  0  0  0  0
   -3.0540   43.6660    7.1060 C   0  0  0  0  0  0
   -3.8500   44.7770    7.5060 O   0  0  0  0  0  0
   -3.4270   45.3460    8.7400 C   0  0  0  0  0  0
    1.4835   45.6037    1.7949 H   0  0  0  0  0  0
    0.8800   45.7398    0.1085 H   0  0  0  0  0  0
    0.0660   44.6348    1.2674 H   0  0  0  0  0  0
   -0.6160   46.5592    2.6235 H   0  0  0  0  0  0
    0.1980   47.6642    1.4647 H   0  0  0  0  0  0
   -0.4403   48.2575   -4.1245 H   0  0  0  0  0  0
    0.9634   49.5556   -2.3468 H   0  0  0  0  0  0
    0.0975   45.6721   -3.8297 H   0  0  0  0  0  0
   -0.1425   46.0023   -2.0805 H   0  0  0  0  0  0
   -2.6904   46.9117   -2.6018 H   0  0  0  0  0  0
   -2.4504   46.5815   -4.3511 H   0  0  0  0  0  0
   -1.7642   50.9133   -2.2273 H   0  0  0  0  0  0
   -0.2633   51.8988   -2.2760 H   0  0  0  0  0  0
   -7.6389   44.0381   -0.2690 H   0  0  0  0  0  0
   -4.6707   43.0651    5.8740 H   0  0  0  0  0  0
   -3.1237   42.2030    5.5738 H   0  0  0  0  0  0
   -3.5681   47.7153   -1.6819 H   0  0  0  0  0  0
   -5.0982   43.4098    3.6143 H   0  0  0  0  0  0
   -7.2228   45.5635   -2.1936 H   0  0  0  0  0  0
   -5.4713   45.7532   -2.5438 H   0  0  0  0  0  0
   -6.3626   47.0572   -1.6883 H   0  0  0  0  0  0
    0.4369   50.7147   -4.6652 H   0  0  0  0  0  0
   -1.0641   49.7291   -4.6167 H   0  0  0  0  0  0
   -3.3022   45.1706    5.0106 H   0  0  0  0  0  0
   -2.2686   43.9176    4.2435 H   0  0  0  0  0  0
   -3.1261   42.8561    7.8469 H   0  0  0  0  0  0
   -2.0022   43.9682    6.9943 H   0  0  0  0  0  0
   -4.0777   46.1957    8.9941 H   0  0  0  0  0  0
   -2.3881   45.6950    8.6458 H   0  0  0  0  0  0
   -3.4883   44.5870    9.5338 H   0  0  0  0  0  0
  1  2  1  0  0  0
  1 31  1  0  0  0
  1 32  1  0  0  0
  1 33  1  0  0  0
  2 19  1  0  0  0
  2 34  1  0  0  0
  2 35  1  0  0  0
  3 18  1  0  0  0
  3 24  2  0  0  0
  3 25  1  0  0  0
  4  6  1  0  0  0
  4  7  1  0  0  0
  4 25  1  0  0  0
  4 36  1  0  0  0
  5  8  1  0  0  0
  5 25  1  0  0  0
  5 26  1  0  0  0
  5 37  1  0  0  0
  6  7  1  0  0  0
  6 38  1  0  0  0
  6 39  1  0  0  0
  7 40  1  0  0  0
  7 41  1  0  0  0
  8 26  1  0  0  0
  8 42  1  0  0  0
  8 43  1  0  0  0
  9 20  2  0  0  0
  9 21  1  0  0  0
  9 44  1  0  0  0
 10 27  1  0  0  0
 10 28  1  0  0  0
 10 45  1  0  0  0
 10 46  1  0  0  0
 11 12  1  0  0  0
 11 16  2  0  0  0
 11 17  1  0  0  0
 12 13  2  0  0  0
 12 19  1  0  0  0
 13 14  1  0  0  0
 14 15  2  0  0  0
 14 22  1  0  0  0
 15 16  1  0  0  0
 15 20  1  0  0  0
 16 21  1  0  0  0
 17 18  2  0  0  0
 17 47  1  0  0  0
 18 19  1  0  0  0
 21 23  1  0  0  0
 22 27  1  0  0  0
 22 48  1  0  0  0
 23 49  1  0  0  0
 23 50  1  0  0  0
 23 51  1  0  0  0
 26 52  1  0  0  0
 26 53  1  0  0  0
 27 54  1  0  0  0
 27 55  1  0  0  0
 28 29  1  0  0  0
 28 56  1  0  0  0
 28 57  1  0  0  0
 29 30  1  0  0  0
 30 58  1  0  0  0
 30 59  1  0  0  0
 30 60  1  0  0  0
M  END
> <s_m_source_file>
../5cf4_ligand.sdf

> <i_m_source_file_index>
1

> <s_epik_input>
W0NIMl0xW0NIMl1bQ0hdMU4oW0NIXTJbQ0gyXVtDSDJdMilDKD1PKWMoW2NIXTMpbihbQ0gyXVtDSDNdKWMoYzM0KW5jKGM1YzRuKFtjSF1uNSlbQ0gzXSlbTkhdW0NIMl1bQ0gyXVtDSDJdT1tDSDNd

> <s_epik_cmdline>
J2VwaWtfYXBwJywgJy1pbWFlJywgJ2xpZ2FuZF9wcm8ubWFlJywgJy1vbWFlJywgJ2xpZ2FuZF9wcmVwLm1hZScsICctbXMnLCAnMScsICctcGgnLCAnNycsICctcGh0JywgJzAuNScsICctbnQn

> <r_epik_Ionization_Penalty>
  0.2040

> <r_epik_Ionization_Penalty_Charging>
  0.2040

> <r_epik_Ionization_Penalty_Neutral>
  0.0000

> <r_epik_State_Penalty>
  0.1929

> <r_epik_Charging_Adjusted_Penalty>
0.396879765315106

> <i_epik_Tot_Q>
0

> <i_epik_Tot_abs_Q>
0

$$$$
