5cf5_ligand
                    3D
 Schrodinger Suite 2020-3.
 59 64  0  0  1  0            999 V2000
   -0.9730   48.3170   -1.2310 C   0  0  0  0  0  0
    0.5290   45.8440    0.9710 C   0  0  0  0  0  0
   -0.4790   46.8640    1.4210 C   0  0  0  0  0  0
   -0.0690   49.3950   -3.2020 C   0  0  0  0  0  0
   -1.2030   47.1430   -3.4630 C   0  0  0  0  0  0
   -0.7780   45.7530   -3.1410 C   0  0  0  0  0  0
   -0.1490   46.4820   -4.2810 C   0  0  0  0  0  0
   -0.7490   50.2080   -4.2500 C   0  0  0  0  0  0
   -1.9830   47.4410   -0.5970 C   0  0  0  0  0  0
   -3.7720   46.1910   -0.0610 C   0  0  0  0  0  0
   -2.8030   46.0360    0.9410 C   0  0  0  0  0  0
   -2.8740   45.2950    2.0550 N   0  0  0  0  0  0
   -4.0110   44.6230    2.2770 C   0  0  0  0  0  0
   -5.0580   44.6450    1.3200 C   0  0  0  0  0  0
   -4.9450   45.4310    0.1760 C   0  0  0  0  0  0
   -6.2500   43.9380    1.3040 N   0  0  0  0  0  0
   -6.8090   44.2900    0.1710 C   0  0  0  0  0  0
   -6.0910   45.1910   -0.5520 N   0  0  0  0  0  0
   -3.2320   47.0850   -1.0230 C   0  0  0  0  0  0
   -1.7120   46.8050    0.6100 N   0  0  0  0  0  0
   -6.4710   45.7550   -1.8440 C   0  0  0  0  0  0
   -4.2010   44.0190    3.5140 N   0  0  0  0  0  0
   -0.8070   48.2730   -2.5740 N   0  0  0  0  0  0
   -0.3740   49.1240   -0.5230 O   0  0  0  0  0  0
   -0.4820   50.7950   -2.9020 C   0  0  0  0  0  0
   -3.3210   44.0530    4.5570 C   0  0  0  0  0  0
   -3.6320   43.4970    5.6970 N   0  0  0  0  0  0
   -1.8310   44.9360    4.5570 S   0  0  0  0  0  0
   -2.6740   43.7770    6.6500 C   0  0  0  0  0  0
   -1.6250   44.5420    6.2340 C   0  0  0  0  0  0
   -2.8460   43.1790    8.0080 C   0  0  0  0  0  0
   -0.4740   45.1240    7.0090 C   0  0  0  0  0  0
    1.4306   45.9186    1.5968 H   0  0  0  0  0  0
    0.7955   46.0307   -0.0798 H   0  0  0  0  0  0
    0.0986   44.8362    1.0667 H   0  0  0  0  0  0
   -0.7455   46.6773    2.4718 H   0  0  0  0  0  0
   -0.0486   47.8718    1.3254 H   0  0  0  0  0  0
    0.8745   48.8328   -3.1402 H   0  0  0  0  0  0
   -2.1733   47.6196   -3.6664 H   0  0  0  0  0  0
   -0.3810   45.7192   -2.1157 H   0  0  0  0  0  0
   -1.6422   45.0773   -3.2220 H   0  0  0  0  0  0
   -0.4801   46.4244   -5.3284 H   0  0  0  0  0  0
    0.7811   47.0663   -4.2221 H   0  0  0  0  0  0
   -0.0887   50.3054   -5.1244 H   0  0  0  0  0  0
   -1.6838   49.7118   -4.5500 H   0  0  0  0  0  0
   -7.7680   43.8940   -0.1630 H   0  0  0  0  0  0
   -3.7236   47.4251   -1.9345 H   0  0  0  0  0  0
   -5.6924   46.4547   -2.1819 H   0  0  0  0  0  0
   -7.4266   46.2904   -1.7435 H   0  0  0  0  0  0
   -6.5802   44.9447   -2.5799 H   0  0  0  0  0  0
   -5.1239   43.4551    3.7148 H   0  0  0  0  0  0
   -1.1909   50.7959   -2.0609 H   0  0  0  0  0  0
    0.4042   51.3896   -2.6353 H   0  0  0  0  0  0
   -3.7897   42.6149    8.0434 H   0  0  0  0  0  0
   -2.8693   43.9803    8.7612 H   0  0  0  0  0  0
   -2.0057   42.5014    8.2194 H   0  0  0  0  0  0
    0.1790   45.6886    6.3272 H   0  0  0  0  0  0
    0.1004   44.3115    7.4779 H   0  0  0  0  0  0
   -0.8600   45.7974    7.7885 H   0  0  0  0  0  0
  1  9  1  0  0  0
  1 23  1  0  0  0
  1 24  2  0  0  0
  2  3  1  0  0  0
  2 33  1  0  0  0
  2 34  1  0  0  0
  2 35  1  0  0  0
  3 20  1  0  0  0
  3 36  1  0  0  0
  3 37  1  0  0  0
  4  8  1  0  0  0
  4 23  1  0  0  0
  4 25  1  0  0  0
  4 38  1  0  0  0
  5  6  1  0  0  0
  5  7  1  0  0  0
  5 23  1  0  0  0
  5 39  1  0  0  0
  6  7  1  0  0  0
  6 40  1  0  0  0
  6 41  1  0  0  0
  7 42  1  0  0  0
  7 43  1  0  0  0
  8 25  1  0  0  0
  8 44  1  0  0  0
  8 45  1  0  0  0
  9 19  2  0  0  0
  9 20  1  0  0  0
 10 11  2  0  0  0
 10 15  1  0  0  0
 10 19  1  0  0  0
 11 12  1  0  0  0
 11 20  1  0  0  0
 12 13  2  0  0  0
 13 14  1  0  0  0
 13 22  1  0  0  0
 14 15  2  0  0  0
 14 16  1  0  0  0
 15 18  1  0  0  0
 16 17  2  0  0  0
 17 18  1  0  0  0
 17 46  1  0  0  0
 18 21  1  0  0  0
 19 47  1  0  0  0
 21 48  1  0  0  0
 21 49  1  0  0  0
 21 50  1  0  0  0
 22 26  1  0  0  0
 22 51  1  0  0  0
 25 52  1  0  0  0
 25 53  1  0  0  0
 26 27  2  0  0  0
 26 28  1  0  0  0
 27 29  1  0  0  0
 28 30  1  0  0  0
 29 30  2  0  0  0
 29 31  1  0  0  0
 30 32  1  0  0  0
 31 54  1  0  0  0
 31 55  1  0  0  0
 31 56  1  0  0  0
 32 57  1  0  0  0
 32 58  1  0  0  0
 32 59  1  0  0  0
M  END
> <s_m_source_file>
../5cf5_ligand.sdf

> <i_m_source_file_index>
1

> <s_epik_input>
W0NIMl0xW0NIMl1bQ0hdMU4oW0NIXTJbQ0gyXVtDSDJdMilDKD1PKWMoW2NIXTMpbihbQ0gyXVtDSDNdKWMoYzM0KW5jKGM1YzRuKFtjSF1uNSlbQ0gzXSlbTkhdYzZuYyhbQ0gzXSljKHM2KVtDSDNd

> <s_epik_cmdline>
J2VwaWtfYXBwJywgJy1pbWFlJywgJ2xpZ2FuZF9wcm8ubWFlJywgJy1vbWFlJywgJ2xpZ2FuZF9wcmVwLm1hZScsICctbXMnLCAnMScsICctcGgnLCAnNycsICctcGh0JywgJzAuNScsICctbnQn

> <r_lp_tautomer_probability>
1

> <r_epik_Ionization_Penalty>
  0.0029

> <r_epik_Ionization_Penalty_Charging>
  0.0021

> <r_epik_Ionization_Penalty_Neutral>
  0.0008

> <r_epik_State_Penalty>
 -0.0000

> <r_epik_Charging_Adjusted_Penalty>
0.00210720591721151

> <i_epik_Tot_Q>
0

> <i_epik_Tot_abs_Q>
0

$$$$
