5cf6_ligand
                    3D
 Schrodinger Suite 2020-3.
 55 59  0  0  1  0            999 V2000
   -7.5530  -56.6650    0.9170 C   0  0  0  0  0  0
  -12.0490  -59.3760   -4.5190 C   0  0  0  0  0  0
  -10.0820  -62.0390    2.0480 C   0  0  0  0  0  0
  -10.5110  -55.7690   -2.0340 C   0  0  2  0  0  0
  -10.5500  -54.3120   -2.4140 C   0  0  0  0  0  0
   -9.0500  -56.2930    2.7350 C   0  0  0  0  0  0
  -11.5950  -62.5860    0.1110 C   0  0  0  0  0  0
   -9.3930  -57.2320    3.8330 C   0  0  0  0  0  0
   -9.8910  -58.6640   -1.0820 C   0  0  0  0  0  0
   -9.7470  -59.5100    0.0280 C   0  0  0  0  0  0
   -9.1640  -57.5090   -0.8480 N   0  0  0  0  0  0
  -10.6030  -58.8870   -2.2000 N   0  0  0  0  0  0
   -8.5390  -57.6380    0.3890 C   0  0  0  0  0  0
  -11.2800  -60.9510   -1.2090 C   0  0  0  0  0  0
  -10.4860  -60.7120   -0.0870 C   0  0  0  0  0  0
  -11.9730  -62.1430   -1.0670 N   0  0  0  0  0  0
   -8.8840  -58.8460    0.9450 C   0  0  0  0  0  0
  -11.3190  -60.0140   -2.2640 C   0  0  0  0  0  0
  -10.6910  -61.7890    0.7470 N   0  0  0  0  0  0
   -9.1240  -56.3290   -1.7330 C   0  0  0  0  0  0
  -12.0840  -60.2290   -3.3480 N   0  0  0  0  0  0
   -7.6720  -56.2410    2.1920 N   0  0  0  0  0  0
   -6.5460  -56.4790    0.2770 O   0  0  0  0  0  0
  -11.6800  -54.0750   -3.2550 O   0  0  0  0  0  0
  -11.1230  -56.5210   -3.0860 O   0  0  0  0  0  0
   -6.5790  -55.6420    3.0170 C   0  0  0  0  0  0
   -9.3170  -55.7650    4.0970 C   0  0  0  0  0  0
   -5.1560  -55.9830    2.7310 C   0  0  0  0  0  0
   -5.8170  -56.5040    3.9660 C   0  0  0  0  0  0
  -12.7598  -59.7534   -5.2689 H   0  0  0  0  0  0
  -11.0339  -59.3766   -4.9429 H   0  0  0  0  0  0
  -12.3267  -58.3505   -4.2340 H   0  0  0  0  0  0
  -10.4593  -62.9896    2.4529 H   0  0  0  0  0  0
  -10.3381  -61.2199    2.7362 H   0  0  0  0  0  0
   -8.9892  -62.0960    1.9364 H   0  0  0  0  0  0
  -11.1075  -55.8865   -1.1173 H   0  0  0  0  0  0
  -10.6316  -53.6981   -1.5049 H   0  0  0  0  0  0
   -9.6277  -54.0487   -2.9526 H   0  0  0  0  0  0
   -9.4530  -56.1046    1.7290 H   0  0  0  0  0  0
  -11.9727  -63.5128    0.5429 H   0  0  0  0  0  0
  -10.3099  -57.7812    3.5727 H   0  0  0  0  0  0
   -8.5674  -57.9444    3.9776 H   0  0  0  0  0  0
   -8.5565  -59.2268    1.9124 H   0  0  0  0  0  0
   -8.6383  -56.6301   -2.6729 H   0  0  0  0  0  0
   -8.5167  -55.5574   -1.2372 H   0  0  0  0  0  0
  -12.7583  -61.0977   -3.3203 H   0  0  0  0  0  0
  -11.8782  -53.0629   -3.6376 H   0  0  0  0  0  0
  -12.1317  -56.2565   -3.4362 H   0  0  0  0  0  0
   -7.1474  -54.7040    3.1013 H   0  0  0  0  0  0
   -8.4269  -55.2338    4.4653 H   0  0  0  0  0  0
  -10.1694  -55.0707    4.0605 H   0  0  0  0  0  0
   -5.0930  -56.5197    1.7729 H   0  0  0  0  0  0
   -4.5620  -55.0590    2.6733 H   0  0  0  0  0  0
   -5.7827  -56.0208    4.9536 H   0  0  0  0  0  0
   -6.3137  -57.4816    4.0532 H   0  0  0  0  0  0
  1 13  1  0  0  0
  1 22  1  0  0  0
  1 23  2  0  0  0
  2 21  1  0  0  0
  2 30  1  0  0  0
  2 31  1  0  0  0
  2 32  1  0  0  0
  3 19  1  0  0  0
  3 33  1  0  0  0
  3 34  1  0  0  0
  3 35  1  0  0  0
  4  5  1  0  0  0
  4 20  1  0  0  0
  4 25  1  0  0  0
  4 36  1  0  0  0
  5 24  1  0  0  0
  5 37  1  0  0  0
  5 38  1  0  0  0
  6  8  1  0  0  0
  6 22  1  0  0  0
  6 27  1  0  0  0
  6 39  1  0  0  0
  7 16  2  0  0  0
  7 19  1  0  0  0
  7 40  1  0  0  0
  8 27  1  0  0  0
  8 41  1  0  0  0
  8 42  1  0  0  0
  9 10  2  0  0  0
  9 11  1  0  0  0
  9 12  1  0  0  0
 10 15  1  0  0  0
 10 17  1  0  0  0
 11 13  1  0  0  0
 11 20  1  0  0  0
 12 18  2  0  0  0
 13 17  2  0  0  0
 14 15  2  0  0  0
 14 16  1  0  0  0
 14 18  1  0  0  0
 15 19  1  0  0  0
 17 43  1  0  0  0
 18 21  1  0  0  0
 20 44  1  0  0  0
 20 45  1  0  0  0
 21 46  1  0  0  0
 22 26  1  0  0  0
 24 47  1  0  0  0
 25 48  1  0  0  0
 26 28  1  0  0  0
 26 29  1  0  0  0
 26 49  1  0  0  0
 27 50  1  0  0  0
 27 51  1  0  0  0
 28 29  1  0  0  0
 28 52  1  0  0  0
 28 53  1  0  0  0
 29 54  1  0  0  0
 29 55  1  0  0  0
M  END
> <s_m_source_file>
../5cf6_ligand.sdf

> <i_m_source_file_index>
1

> <s_epik_input>
W09IXVtDSDJdW0NAQEhdKFtPSF0pW0NIMl1uMWMoQyg9TylOKFtDSF0yW0NIMl1bQ0gyXTIpW0NIXTNbQ0gyXVtDSDJdMylbY0hdYyhjMTQpYzVjKGMobjQpW05IXVtDSDNdKW5bY0hdbjVbQ0gzXQ==

> <s_epik_cmdline>
J2VwaWtfYXBwJywgJy1pbWFlJywgJ2xpZ2FuZF9wcm8ubWFlJywgJy1vbWFlJywgJ2xpZ2FuZF9wcmVwLm1hZScsICctbXMnLCAnMScsICctcGgnLCAnNycsICctcGh0JywgJzAuNScsICctbnQn

> <r_epik_Ionization_Penalty>
  0.1786

> <r_epik_Ionization_Penalty_Charging>
  0.1786

> <r_epik_Ionization_Penalty_Neutral>
  0.0000

> <r_epik_State_Penalty>
  0.1668

> <r_epik_Charging_Adjusted_Penalty>
0.345450144515111

> <i_epik_Tot_Q>
0

> <i_epik_Tot_abs_Q>
0

$$$$
