5cf8_ligand
                    3D
 Schrodinger Suite 2020-3.
 60 65  0  0  1  0            999 V2000
   -1.6530   46.8520    0.7090 N   0  0  0  0  0  0
   -1.8800   47.4350   -0.5340 C   0  0  0  0  0  0
   -0.4280   46.8800    1.5260 C   0  0  0  0  0  0
   -0.9010   48.3500   -1.1570 C   0  0  0  0  0  0
    0.4610   45.7110    1.1510 C   0  0  0  0  0  0
   -0.1050   49.5520   -3.1170 C   0  0  0  0  0  0
   -1.1490   47.2700   -3.4080 C   0  0  0  0  0  0
   -0.8500   50.3620   -4.1190 C   0  0  0  0  0  0
   -0.5540   50.9290   -2.7710 C   0  0  0  0  0  0
   -0.7690   45.8740   -3.0580 C   0  0  0  0  0  0
   -6.3820   45.8320   -1.7630 C   0  0  0  0  0  0
   -3.1200   47.0570   -0.9850 C   0  0  0  0  0  0
   -3.7150   43.4580    5.8150 C   0  0  0  0  0  0
   -3.6910   46.2110    0.0040 C   0  0  0  0  0  0
   -2.7550   46.1120    1.0440 C   0  0  0  0  0  0
   -2.8400   45.3930    2.1690 N   0  0  0  0  0  0
   -3.9620   44.6940    2.3660 C   0  0  0  0  0  0
   -4.9930   44.6990    1.3990 C   0  0  0  0  0  0
   -4.8640   45.4670    0.2410 C   0  0  0  0  0  0
   -4.1290   44.0430    3.5680 N   0  0  0  0  0  0
   -6.2140   44.0430    1.4100 N   0  0  0  0  0  0
   -6.7790   44.4130    0.2810 C   0  0  0  0  0  0
   -6.0280   45.2670   -0.4680 N   0  0  0  0  0  0
   -0.7890   48.3900   -2.5010 N   0  0  0  0  0  0
   -0.2850   49.1180   -0.4280 O   0  0  0  0  0  0
   -0.0500   46.5930   -4.1510 C   0  0  0  0  0  0
   -3.2470   44.0520    4.6500 C   0  0  0  0  0  0
   -2.7860   43.7160    6.7720 C   0  0  0  0  0  0
   -1.7900   44.3890    6.1700 N   0  0  0  0  0  0
   -2.0530   44.6200    4.8370 N   0  0  0  0  0  0
   -2.7830   43.3920    8.2270 C   0  0  0  0  0  0
   -0.5280   44.8510    6.7470 C   0  0  0  0  0  0
    0.1114   47.8216    1.3458 H   0  0  0  0  0  0
   -0.6955   46.8086    2.5906 H   0  0  0  0  0  0
    1.3750   45.7344    1.7626 H   0  0  0  0  0  0
    0.7301   45.7816    0.0868 H   0  0  0  0  0  0
   -0.0769   44.7686    1.3315 H   0  0  0  0  0  0
    0.8604   49.0251   -3.0964 H   0  0  0  0  0  0
   -2.0969   47.7612   -3.6729 H   0  0  0  0  0  0
   -0.2266   50.5013   -5.0145 H   0  0  0  0  0  0
   -1.7779   49.8400   -4.3958 H   0  0  0  0  0  0
   -1.2307   50.8872   -1.9047 H   0  0  0  0  0  0
    0.3206   51.5485   -2.5235 H   0  0  0  0  0  0
   -0.4455   45.8345   -2.0074 H   0  0  0  0  0  0
   -1.6356   45.2115   -3.2000 H   0  0  0  0  0  0
   -5.5691   46.4856   -2.1124 H   0  0  0  0  0  0
   -7.3079   46.4180   -1.6666 H   0  0  0  0  0  0
   -6.5363   45.0191   -2.4879 H   0  0  0  0  0  0
   -3.5816   47.3513   -1.9276 H   0  0  0  0  0  0
   -4.6417   42.8973    5.9369 H   0  0  0  0  0  0
   -5.0318   43.4404    3.7463 H   0  0  0  0  0  0
   -7.7646   44.0655   -0.0286 H   0  0  0  0  0  0
   -0.3077   46.5403   -5.2191 H   0  0  0  0  0  0
    0.8824   47.1632   -4.0265 H   0  0  0  0  0  0
   -3.6996   42.8397    8.4815 H   0  0  0  0  0  0
   -2.7426   44.3239    8.8101 H   0  0  0  0  0  0
   -1.9046   42.7734    8.4631 H   0  0  0  0  0  0
   -0.4916   44.5812    7.8128 H   0  0  0  0  0  0
   -0.4554   45.9436    6.6427 H   0  0  0  0  0  0
    0.3121   44.3756    6.2195 H   0  0  0  0  0  0
  1  2  1  0  0  0
  1  3  1  0  0  0
  1 15  1  0  0  0
  2  4  1  0  0  0
  2 12  2  0  0  0
  3  5  1  0  0  0
  3 33  1  0  0  0
  3 34  1  0  0  0
  4 24  1  0  0  0
  4 25  2  0  0  0
  5 35  1  0  0  0
  5 36  1  0  0  0
  5 37  1  0  0  0
  6  8  1  0  0  0
  6  9  1  0  0  0
  6 24  1  0  0  0
  6 38  1  0  0  0
  7 10  1  0  0  0
  7 24  1  0  0  0
  7 26  1  0  0  0
  7 39  1  0  0  0
  8  9  1  0  0  0
  8 40  1  0  0  0
  8 41  1  0  0  0
  9 42  1  0  0  0
  9 43  1  0  0  0
 10 26  1  0  0  0
 10 44  1  0  0  0
 10 45  1  0  0  0
 11 23  1  0  0  0
 11 46  1  0  0  0
 11 47  1  0  0  0
 11 48  1  0  0  0
 12 14  1  0  0  0
 12 49  1  0  0  0
 13 27  1  0  0  0
 13 28  2  0  0  0
 13 50  1  0  0  0
 14 15  2  0  0  0
 14 19  1  0  0  0
 15 16  1  0  0  0
 16 17  2  0  0  0
 17 18  1  0  0  0
 17 20  1  0  0  0
 18 19  2  0  0  0
 18 21  1  0  0  0
 19 23  1  0  0  0
 20 27  1  0  0  0
 20 51  1  0  0  0
 21 22  2  0  0  0
 22 23  1  0  0  0
 22 52  1  0  0  0
 26 53  1  0  0  0
 26 54  1  0  0  0
 27 30  2  0  0  0
 28 29  1  0  0  0
 28 31  1  0  0  0
 29 30  1  0  0  0
 29 32  1  0  0  0
 31 55  1  0  0  0
 31 56  1  0  0  0
 31 57  1  0  0  0
 32 58  1  0  0  0
 32 59  1  0  0  0
 32 60  1  0  0  0
M  END
> <s_m_source_file>
../5cf8_ligand.sdf

> <i_m_source_file_index>
1

> <s_epik_input>
W0NIMl0xW0NIMl1bQ0hdMU4oW0NIXTJbQ0gyXVtDSDJdMilDKD1PKWMoW2NIXTMpbihbQ0gyXVtDSDNdKWMoYzM0KW5jKGM1YzRuKFtDSDNdKVtjSF1uNSlbTkhdYzZbY0hdYyhbQ0gzXSluKG42KVtDSDNd

> <s_epik_cmdline>
J2VwaWtfYXBwJywgJy1pbWFlJywgJ2xpZ2FuZF9wcm8ubWFlJywgJy1vbWFlJywgJ2xpZ2FuZF9wcmVwLm1hZScsICctbXMnLCAnMScsICctcGgnLCAnNycsICctcGh0JywgJzAuNScsICctbnQn

> <r_lp_tautomer_probability>
1

> <r_epik_Ionization_Penalty>
  0.0530

> <r_epik_Ionization_Penalty_Charging>
  0.0488

> <r_epik_Ionization_Penalty_Neutral>
  0.0041

> <r_epik_State_Penalty>
  0.0411

> <r_epik_Charging_Adjusted_Penalty>
0.0899037840390518

> <i_epik_Tot_Q>
0

> <i_epik_Tot_abs_Q>
0

$$$$
