5cfa_ligand
                    3D
 Schrodinger Suite 2020-3.
155156  0  0  1  0            999 V2000
    6.0480    4.6050   32.6170 N   0  3  0  0  0  0
    5.9690    6.0670   32.7050 C   0  0  2  0  0  0
    5.9900    6.7410   31.3380 C   0  0  0  0  0  0
    5.0030    6.7300   30.6070 O   0  0  0  0  0  0
    7.1040    6.6070   33.5650 C   0  0  0  0  0  0
    7.1200    7.3470   31.0140 N   0  0  0  0  0  0
    7.2660    8.0370   29.7600 C   0  0  2  0  0  0
    8.2110    7.2790   28.9050 C   0  0  0  0  0  0
    8.9670    6.4120   29.3580 O   0  0  0  0  0  0
    7.7990    9.4450   29.9390 C   0  0  0  0  0  0
    6.8210   10.3650   30.6270 C   0  0  0  0  0  0
    7.5400   11.6160   30.9890 C   0  0  0  0  0  0
    6.5690   12.5850   31.5900 C   0  0  0  0  0  0
    7.2160   13.8500   32.0000 N   0  3  0  0  0  0
    8.2080    7.6420   27.6400 N   0  0  0  0  0  0
    9.0630    6.9370   26.7070 C   0  0  2  0  0  0
    9.7880    8.1250   26.0830 C   0  0  0  0  0  0
    9.2250    9.2240   26.0370 O   0  0  0  0  0  0
    8.2740    6.0810   25.7040 C   0  0  0  0  0  0
    6.9060    5.5190   26.2920 C   0  0  0  0  0  0
    5.9680    5.1900   25.1080 C   0  0  0  0  0  0
    6.3310    4.2930   24.3580 O   0  0  0  0  0  0
    4.9570    6.0590   24.7780 N   0  0  0  0  0  0
   11.0150    7.9350   25.6110 N   0  0  0  0  0  0
   11.8540    9.0740   25.2510 C   0  0  2  0  0  0
   12.5710    8.8920   23.9290 C   0  0  0  0  0  0
   12.8450    7.7740   23.4880 O   0  0  0  0  0  0
   12.9140    9.3210   26.3230 C   0  0  0  0  0  0
   12.3780    9.8720   27.6090 C   0  0  0  0  0  0
   12.2440   11.2390   27.7980 C   0  0  0  0  0  0
   12.0350    9.0170   28.6430 C   0  0  0  0  0  0
   11.7680   11.7390   28.9980 C   0  0  0  0  0  0
   11.5550    9.5180   29.8500 C   0  0  0  0  0  0
   11.4270   10.8810   30.0180 C   0  0  0  0  0  0
   12.9110   10.0280   23.3340 N   0  0  0  0  0  0
   13.6940   10.0540   22.1110 C   0  0  2  0  0  0
   14.6460   11.2410   22.1150 C   0  0  0  0  0  0
   14.5080   12.1870   22.9040 O   0  0  0  0  0  0
   12.7900   10.1170   20.8730 C   0  0  2  0  0  0
   13.5890    9.9620   19.6910 O   0  0  0  0  0  0
   12.0620   11.4390   20.8090 C   0  0  0  0  0  0
   15.6120   11.1890   21.2030 N   0  0  0  0  0  0
   16.5560   12.2680   21.0030 C   0  0  2  0  0  0
   16.0200   13.2080   19.9420 C   0  0  0  0  0  0
   15.4230   12.7700   18.9570 O   0  0  0  0  0  0
   17.9190   11.7190   20.5770 C   0  0  0  0  0  0
   18.8210   12.7560   20.2250 O   0  0  0  0  0  0
   16.2280   14.5000   20.1560 N   0  0  0  0  0  0
   15.8480   15.4980   19.1770 C   0  0  2  0  0  0
   17.0020   16.4630   18.9450 C   0  0  0  0  0  0
   18.0500   16.3690   19.5870 O   0  0  0  0  0  0
   14.6020   16.2590   19.6270 C   0  0  0  0  0  0
   14.1630   17.1270   18.6030 O   0  0  0  0  0  0
   16.7990   17.3880   18.0180 N   0  0  0  0  0  0
   17.8030   18.3890   17.7030 C   0  0  2  0  0  0
   17.3300   19.7570   18.1830 C   0  0  0  0  0  0
   16.1560   20.1020   18.0340 O   0  0  0  0  0  0
   18.0850   18.4200   16.1930 C   0  0  2  0  0  0
   18.2400   17.0780   15.7150 O   0  0  0  0  0  0
   19.3490   19.2150   15.8890 C   0  0  0  0  0  0
   18.2330   20.5240   18.7880 N   0  0  0  0  0  0
   17.9130   21.8910   19.1690 C   0  0  2  0  0  0
   18.3750   22.8110   18.0620 C   0  0  0  0  0  0
   19.3640   22.5240   17.3920 O   0  0  0  0  0  0
   18.5810   22.2770   20.4800 C   0  0  0  0  0  0
   18.0770   21.4870   21.5230 O   0  0  0  0  0  0
   17.6680   23.9200   17.8750 N   0  0  0  0  0  0
   17.9720   24.8190   16.7680 C   0  0  2  0  0  0
   17.9700   26.2860   17.1940 C   0  0  0  0  0  0
   18.5220   26.6470   18.2350 O   0  0  0  0  0  0
   16.9680   24.6190   15.6370 C   0  0  0  0  0  0
   16.9730   23.2570   14.9700 C   0  0  0  0  0  0
   18.0380   22.8550   14.1690 C   0  0  0  0  0  0
   15.8970   22.3840   15.1210 C   0  0  0  0  0  0
   18.0370   21.6180   13.5460 C   0  0  0  0  0  0
   15.8880   21.1420   14.5020 C   0  0  0  0  0  0
   16.9620   20.7660   13.7150 C   0  0  0  0  0  0
   16.9600   19.5340   13.0950 O   0  0  0  0  0  0
   17.4160   27.1470   16.5080 O   0  0  0  0  0  0
    5.2229    4.2301   31.9936 H   0  0  0  0  0  0
    5.9715    4.1723   33.6254 H   0  0  0  0  0  0
    7.0088    4.3162   32.1660 H   0  0  0  0  0  0
    4.9938    6.2628   33.1748 H   0  0  0  0  0  0
    7.0832    6.1168   34.5495 H   0  0  0  0  0  0
    6.9822    7.6927   33.6933 H   0  0  0  0  0  0
    8.0663    6.4015   33.0733 H   0  0  0  0  0  0
    7.9582    7.3161   31.7256 H   0  0  0  0  0  0
    6.2573    8.0673   29.3223 H   0  0  0  0  0  0
    8.7143    9.4158   30.5484 H   0  0  0  0  0  0
    8.0279    9.8784   28.9542 H   0  0  0  0  0  0
    5.9878   10.5904   29.9452 H   0  0  0  0  0  0
    6.4320    9.8758   31.5322 H   0  0  0  0  0  0
    8.3315   11.3863   31.7176 H   0  0  0  0  0  0
    7.9891   12.0552   30.0860 H   0  0  0  0  0  0
    5.7881   12.8259   30.8536 H   0  0  0  0  0  0
    6.1065   12.1356   32.4811 H   0  0  0  0  0  0
    6.4621   14.5238   32.4333 H   0  0  0  0  0  0
    7.6743   14.3287   31.1221 H   0  0  0  0  0  0
    7.9928   13.6384   32.7496 H   0  0  0  0  0  0
    7.5703    8.4659   27.2871 H   0  0  0  0  0  0
    9.7153    6.2009   27.1996 H   0  0  0  0  0  0
    8.0293    6.6860   24.8185 H   0  0  0  0  0  0
    8.8831    5.2167   25.4007 H   0  0  0  0  0  0
    7.1051    4.6105   26.8794 H   0  0  0  0  0  0
    6.4447    6.2799   26.9387 H   0  0  0  0  0  0
    4.6616    6.8516   25.4812 H   0  0  0  0  0  0
    4.4427    5.9624   23.8104 H   0  0  0  0  0  0
   11.3977    6.9106   25.4921 H   0  0  0  0  0  0
   11.1326    9.9000   25.1664 H   0  0  0  0  0  0
   13.4179    8.3738   26.5655 H   0  0  0  0  0  0
   13.6533   10.0440   25.9479 H   0  0  0  0  0  0
   12.5155   11.9252   26.9958 H   0  0  0  0  0  0
   12.1420    7.9404   28.5104 H   0  0  0  0  0  0
   11.6631   12.8152   29.1351 H   0  0  0  0  0  0
   11.2822    8.8377   30.6568 H   0  0  0  0  0  0
   11.0546   11.2796   30.9617 H   0  0  0  0  0  0
   12.5807   10.9702   23.7957 H   0  0  0  0  0  0
   14.2603    9.1110   22.1195 H   0  0  0  0  0  0
   12.0619    9.2925   20.8790 H   0  0  0  0  0  0
   14.1971    9.0558   19.5531 H   0  0  0  0  0  0
   11.4476   11.5634   21.7129 H   0  0  0  0  0  0
   11.4145   11.4583   19.9200 H   0  0  0  0  0  0
   12.7938   12.2580   20.7475 H   0  0  0  0  0  0
   15.6773   10.2798   20.5872 H   0  0  0  0  0  0
   16.6439   12.7849   21.9700 H   0  0  0  0  0  0
   18.3593   11.1466   21.4068 H   0  0  0  0  0  0
   17.7930   11.0614   19.7043 H   0  0  0  0  0  0
   19.8418   12.5094   19.8977 H   0  0  0  0  0  0
   16.6998   14.8080   21.1007 H   0  0  0  0  0  0
   15.6265   14.9381   18.2564 H   0  0  0  0  0  0
   13.7998   15.5435   19.8604 H   0  0  0  0  0  0
   14.8377   16.8509   20.5237 H   0  0  0  0  0  0
   13.2732   17.7548   18.7581 H   0  0  0  0  0  0
   15.8388   17.3842   17.4813 H   0  0  0  0  0  0
   18.7106   18.0867   18.2460 H   0  0  0  0  0  0
   17.2334   18.8529   15.6477 H   0  0  0  0  0  0
   17.4254   16.3503   15.8450 H   0  0  0  0  0  0
   19.2311   20.2454   16.2555 H   0  0  0  0  0  0
   19.5205   19.2296   14.8026 H   0  0  0  0  0  0
   20.2078   18.7438   16.3895 H   0  0  0  0  0  0
   19.2313   20.1134   18.9996 H   0  0  0  0  0  0
   16.8221   21.9369   19.3022 H   0  0  0  0  0  0
   19.6667   22.1205   20.3983 H   0  0  0  0  0  0
   18.3786   23.3363   20.6967 H   0  0  0  0  0  0
   18.4481   21.6284   22.5488 H   0  0  0  0  0  0
   16.8457   24.1570   18.5661 H   0  0  0  0  0  0
   18.9876   24.5337   16.4563 H   0  0  0  0  0  0
   15.9480   24.7643   16.0223 H   0  0  0  0  0  0
   17.1656   25.3487   14.8380 H   0  0  0  0  0  0
   18.8867   23.5247   14.0298 H   0  0  0  0  0  0
   15.0478   22.6820   15.7360 H   0  0  0  0  0  0
   18.8808   21.3176   12.9248 H   0  0  0  0  0  0
   15.0416   20.4681   14.6348 H   0  0  0  0  0  0
   17.8124   19.2321   12.4686 H   0  0  0  0  0  0
   17.4255   28.1982   16.8317 H   0  0  0  0  0  0
  1  2  1  0  0  0
  1 80  1  0  0  0
  1 81  1  0  0  0
  1 82  1  0  0  0
  2  3  1  0  0  0
  2  5  1  0  0  0
  2 83  1  0  0  0
  3  4  2  0  0  0
  3  6  1  0  0  0
  5 84  1  0  0  0
  5 85  1  0  0  0
  5 86  1  0  0  0
  6  7  1  0  0  0
  6 87  1  0  0  0
  7  8  1  0  0  0
  7 10  1  0  0  0
  7 88  1  0  0  0
  8  9  2  0  0  0
  8 15  1  0  0  0
 10 11  1  0  0  0
 10 89  1  0  0  0
 10 90  1  0  0  0
 11 12  1  0  0  0
 11 91  1  0  0  0
 11 92  1  0  0  0
 12 13  1  0  0  0
 12 93  1  0  0  0
 12 94  1  0  0  0
 13 14  1  0  0  0
 13 95  1  0  0  0
 13 96  1  0  0  0
 14 97  1  0  0  0
 14 98  1  0  0  0
 14 99  1  0  0  0
 15 16  1  0  0  0
 15100  1  0  0  0
 16 17  1  0  0  0
 16 19  1  0  0  0
 16101  1  0  0  0
 17 18  2  0  0  0
 17 24  1  0  0  0
 19 20  1  0  0  0
 19102  1  0  0  0
 19103  1  0  0  0
 20 21  1  0  0  0
 20104  1  0  0  0
 20105  1  0  0  0
 21 22  2  0  0  0
 21 23  1  0  0  0
 23106  1  0  0  0
 23107  1  0  0  0
 24 25  1  0  0  0
 24108  1  0  0  0
 25 26  1  0  0  0
 25 28  1  0  0  0
 25109  1  0  0  0
 26 27  2  0  0  0
 26 35  1  0  0  0
 28 29  1  0  0  0
 28110  1  0  0  0
 28111  1  0  0  0
 29 30  2  0  0  0
 29 31  1  0  0  0
 30 32  1  0  0  0
 30112  1  0  0  0
 31 33  2  0  0  0
 31113  1  0  0  0
 32 34  2  0  0  0
 32114  1  0  0  0
 33 34  1  0  0  0
 33115  1  0  0  0
 34116  1  0  0  0
 35 36  1  0  0  0
 35117  1  0  0  0
 36 37  1  0  0  0
 36 39  1  0  0  0
 36118  1  0  0  0
 37 38  2  0  0  0
 37 42  1  0  0  0
 39 40  1  0  0  0
 39 41  1  0  0  0
 39119  1  0  0  0
 40120  1  0  0  0
 41121  1  0  0  0
 41122  1  0  0  0
 41123  1  0  0  0
 42 43  1  0  0  0
 42124  1  0  0  0
 43 44  1  0  0  0
 43 46  1  0  0  0
 43125  1  0  0  0
 44 45  2  0  0  0
 44 48  1  0  0  0
 46 47  1  0  0  0
 46126  1  0  0  0
 46127  1  0  0  0
 47128  1  0  0  0
 48 49  1  0  0  0
 48129  1  0  0  0
 49 50  1  0  0  0
 49 52  1  0  0  0
 49130  1  0  0  0
 50 51  2  0  0  0
 50 54  1  0  0  0
 52 53  1  0  0  0
 52131  1  0  0  0
 52132  1  0  0  0
 53133  1  0  0  0
 54 55  1  0  0  0
 54134  1  0  0  0
 55 56  1  0  0  0
 55 58  1  0  0  0
 55135  1  0  0  0
 56 57  2  0  0  0
 56 61  1  0  0  0
 58 59  1  0  0  0
 58 60  1  0  0  0
 58136  1  0  0  0
 59137  1  0  0  0
 60138  1  0  0  0
 60139  1  0  0  0
 60140  1  0  0  0
 61 62  1  0  0  0
 61141  1  0  0  0
 62 63  1  0  0  0
 62 65  1  0  0  0
 62142  1  0  0  0
 63 64  2  0  0  0
 63 67  1  0  0  0
 65 66  1  0  0  0
 65143  1  0  0  0
 65144  1  0  0  0
 66145  1  0  0  0
 67 68  1  0  0  0
 67146  1  0  0  0
 68 69  1  0  0  0
 68 71  1  0  0  0
 68147  1  0  0  0
 69 70  2  0  0  0
 69 79  1  0  0  0
 71 72  1  0  0  0
 71148  1  0  0  0
 71149  1  0  0  0
 72 73  2  0  0  0
 72 74  1  0  0  0
 73 75  1  0  0  0
 73150  1  0  0  0
 74 76  2  0  0  0
 74151  1  0  0  0
 75 77  2  0  0  0
 75152  1  0  0  0
 76 77  1  0  0  0
 76153  1  0  0  0
 77 78  1  0  0  0
 78154  1  0  0  0
 79155  1  0  0  0
M  CHG  2   1   1  14   1
M  END
> <s_m_source_file>
../5cfa_ligand.sdf

> <i_m_source_file_index>
1

> <s_epik_input>
W05IMytdW0NIMl1bQ0gyXVtDSDJdW0NIMl1bQ0BIXShbTkhdQyg9TylbQ0BASF0oW05IMytdKVtDSDNdKUMoPU8pW05IXVtDQEBIXShbQ0gyXVtDSDJdQyg9TylbTkgyXSlDKD1PKVtOSF1bQ0BASF0oW0NIMl1jMVtjSF1bY0hdW2NIXVtjSF1bY0hdMSlDKD1PKVtOSF1bQ0BASF0oW0NASF0oW09IXSlbQ0gzXSlDKD1PKVtOSF1bQ0BASF0oW0NIMl1bT0hdKUMoPU8pW05IXVtDQEBIXShbQ0gyXVtPSF0pQyg9TylbTkhdW0NAQEhdKFtDQEhdKFtPSF0pW0NIM10pQyg9TylbTkhdW0NAQEhdKFtDSDJdW09IXSlDKD1PKVtOSF1bQ0BIXShDKD1PKVtPSF0pW0NIMl1jMltjSF1bY0hdYyhbT0hdKVtjSF1bY0hdMg==

> <s_epik_cmdline>
J2VwaWtfYXBwJywgJy1pbWFlJywgJ2xpZ2FuZF9wcm8ubWFlJywgJy1vbWFlJywgJ2xpZ2FuZF9wcmVwLm1hZScsICctbXMnLCAnMScsICctcGgnLCAnNycsICctcGh0JywgJzAuNScsICctbnQn

> <s_epik_pKa_notes>
Molecule size exceeds maximum supported for generating protonation states

$$$$
