5cfb_ligand
                    3D
 Schrodinger Suite 2020-3.
 48 54  0  0  1  0            999 V2000
  117.8140  133.1740   19.4170 C   0  0  1  0  0  0
  117.8910  132.4660   18.0600 C   0  0  0  0  0  0
  119.2040  131.7120   17.9630 C   0  0  2  0  0  0
  119.1330  130.5460   18.9410 C   0  0  2  0  0  0
  118.8860  130.9790   20.3810 C   0  0  2  0  0  0
  118.1220  129.8630   20.9330 N   0  0  0  0  0  0
  116.8650  130.2990   21.3810 C   0  0  0  0  0  0
  115.7930  129.5640   21.8840 C   0  0  0  0  0  0
  114.6090  130.2000   22.2370 C   0  0  0  0  0  0
  114.4820  131.5770   22.0710 C   0  0  0  0  0  0
  115.5410  132.3190   21.5560 C   0  0  0  0  0  0
  116.7260  131.6820   21.1940 C   0  0  0  0  0  0
  118.0310  132.2330   20.6270 C   0  0  2  0  0  0
  118.6570  133.1440   21.6700 C   0  0  0  0  0  0
  119.4940  134.1170   20.8480 C   0  0  0  0  0  0
  118.8450  134.2470   19.5260 N   0  3  1  0  0  0
  119.9230  134.1600   18.5170 C   0  0  0  0  0  0
  120.2940  132.6940   18.3130 C   0  0  0  0  0  0
  121.6280  132.4040   18.4900 C   0  0  0  0  0  0
  122.0940  131.1120   18.3660 C   0  0  0  0  0  0
  121.6100  130.1390   19.3060 O   0  0  0  0  0  0
  120.3250  129.5590   18.9590 C   0  0  1  0  0  0
  120.0620  128.4610   20.0600 C   0  0  0  0  0  0
  118.6830  128.5840   20.7440 C   0  0  0  0  0  0
  118.1030  127.5720   21.1360 O   0  0  0  0  0  0
  116.8055  133.6124   19.4459 H   0  0  0  0  0  0
  117.0527  131.7600   17.9667 H   0  0  0  0  0  0
  117.8337  133.2118   17.2535 H   0  0  0  0  0  0
  119.4110  131.3108   16.9599 H   0  0  0  0  0  0
  118.2596  130.0199   18.5283 H   0  0  0  0  0  0
  119.8639  131.1893   20.8386 H   0  0  0  0  0  0
  115.8839  128.4841   22.0012 H   0  0  0  0  0  0
  113.7797  129.6213   22.6438 H   0  0  0  0  0  0
  113.5516  132.0745   22.3449 H   0  0  0  0  0  0
  115.4433  133.3980   21.4360 H   0  0  0  0  0  0
  117.8631  133.6534   22.2359 H   0  0  0  0  0  0
  119.2715  132.5453   22.3584 H   0  0  0  0  0  0
  119.5301  135.0910   21.3579 H   0  0  0  0  0  0
  120.5148  133.7218   20.7398 H   0  0  0  0  0  0
  118.3277  135.2058   19.3744 H   0  0  0  0  0  0
  119.5718  134.5897   17.5673 H   0  0  0  0  0  0
  120.8017  134.7197   18.8700 H   0  0  0  0  0  0
  122.3380  133.2080   18.7338 H   0  0  0  0  0  0
  121.8238  130.7183   17.3751 H   0  0  0  0  0  0
  123.1883  131.1046   18.4775 H   0  0  0  0  0  0
  120.4485  129.2184   17.9204 H   0  0  0  0  0  0
  120.1115  127.4625   19.6012 H   0  0  0  0  0  0
  120.8259  128.5410   20.8475 H   0  0  0  0  0  0
  1  2  1  0  0  0
  1 13  1  0  0  0
  1 16  1  0  0  0
  1 26  1  0  0  0
  2  3  1  0  0  0
  2 27  1  0  0  0
  2 28  1  0  0  0
  3  4  1  0  0  0
  3 18  1  0  0  0
  3 29  1  0  0  0
  4  5  1  0  0  0
  4 22  1  0  0  0
  4 30  1  0  0  0
  5  6  1  0  0  0
  5 13  1  0  0  0
  5 31  1  0  0  0
  6  7  1  0  0  0
  6 24  1  0  0  0
  7  8  2  0  0  0
  7 12  1  0  0  0
  8  9  1  0  0  0
  8 32  1  0  0  0
  9 10  2  0  0  0
  9 33  1  0  0  0
 10 11  1  0  0  0
 10 34  1  0  0  0
 11 12  2  0  0  0
 11 35  1  0  0  0
 12 13  1  0  0  0
 13 14  1  0  0  0
 14 15  1  0  0  0
 14 36  1  0  0  0
 14 37  1  0  0  0
 15 16  1  0  0  0
 15 38  1  0  0  0
 15 39  1  0  0  0
 16 17  1  0  0  0
 16 40  1  0  0  0
 17 18  1  0  0  0
 17 41  1  0  0  0
 17 42  1  0  0  0
 18 19  2  0  0  0
 19 20  1  0  0  0
 19 43  1  0  0  0
 20 21  1  0  0  0
 20 44  1  0  0  0
 20 45  1  0  0  0
 21 22  1  0  0  0
 22 23  1  0  0  0
 22 46  1  0  0  0
 23 24  1  0  0  0
 23 47  1  0  0  0
 23 48  1  0  0  0
 24 25  2  0  0  0
M  CHG  1  16   1
M  END
> <s_m_source_file>
../5cfb_ligand.sdf

> <i_m_source_file_index>
1

> <s_epik_input>
W0NAQF0xMjNbQ0BIXTRbTkBASCtdKFtDSDJdW0NIMl0zKVtDSDJdQz01W0NASF0oW0NIMl00KVtDQEBIXTZbQ0BASF0xTihjN2MyW2NIXVtjSF1bY0hdW2NIXTcpQyg9TylbQ0gyXVtDQEBIXTZPW0NIMl1bQ0hdNQ==

> <s_epik_cmdline>
J2VwaWtfYXBwJywgJy1pbWFlJywgJ2xpZ2FuZF9wcm8ubWFlJywgJy1vbWFlJywgJ2xpZ2FuZF9wcmVwLm1hZScsICctbXMnLCAnMScsICctcGgnLCAnNycsICctcGh0JywgJzAuNScsICctbnQn

> <r_epik_Ionization_Penalty>
  0.0214

> <r_epik_Ionization_Penalty_Charging>
  0.0214

> <r_epik_Ionization_Penalty_Neutral>
  0.0000

> <r_epik_State_Penalty>
  0.0172

> <r_epik_Charging_Adjusted_Penalty>
0.0385857869951525

> <i_epik_Tot_Q>
1

> <i_epik_Tot_abs_Q>
1

$$$$
