5cgc_ligand
                    3D
 Schrodinger Suite 2020-3.
 28 30  0  0  1  0            999 V2000
  -24.0300   18.1900   44.2130 C   0  0  0  0  0  0
  -23.5200   19.3770   44.7100 C   0  0  0  0  0  0
  -22.4900   19.3650   45.6240 C   0  0  0  0  0  0
  -21.9580   18.1510   46.0550 C   0  0  0  0  0  0
  -22.4660   16.9530   45.5590 C   0  0  0  0  0  0
  -23.5090   16.9640   44.6400 C   0  0  0  0  0  0
  -24.0150   15.6600   44.1290 C   0  0  0  0  0  0
  -24.4050   15.5000   42.7970 C   0  0  0  0  0  0
  -24.8580   14.2550   42.3780 C   0  0  0  0  0  0
  -24.5130   13.4360   44.4990 C   0  0  0  0  0  0
  -25.0390   18.2510   43.3230 F   0  0  0  0  0  0
  -24.8980   13.2540   43.2510 N   0  0  0  0  0  0
  -24.0830   14.6030   44.9380 N   0  0  0  0  0  0
  -25.2490   14.0660   41.0520 N   0  0  0  0  0  0
  -25.5550   12.8780   40.4720 C   0  0  0  0  0  0
  -25.8690   13.1270   39.1830 C   0  0  0  0  0  0
  -25.7500   14.5050   38.9610 C   0  0  0  0  0  0
  -25.3770   15.0660   40.0800 N   0  0  0  0  0  0
  -20.8890   18.1490   47.0030 C   0  0  0  0  0  0
  -20.0410   18.1570   47.7560 N   0  0  0  0  0  0
  -24.1790   20.8910   44.1790 Cl  0  0  0  0  0  0
  -22.0915   20.3033   46.0097 H   0  0  0  0  0  0
  -22.0448   16.0045   45.8921 H   0  0  0  0  0  0
  -24.3549   16.3361   42.0995 H   0  0  0  0  0  0
  -24.5514   12.5943   45.1905 H   0  0  0  0  0  0
  -25.5484   11.9022   40.9576 H   0  0  0  0  0  0
  -26.1643   12.3838   38.4424 H   0  0  0  0  0  0
  -25.9363   15.0196   38.0183 H   0  0  0  0  0  0
  1  2  2  0  0  0
  1  6  1  0  0  0
  1 11  1  0  0  0
  2  3  1  0  0  0
  2 21  1  0  0  0
  3  4  2  0  0  0
  3 22  1  0  0  0
  4  5  1  0  0  0
  4 19  1  0  0  0
  5  6  2  0  0  0
  5 23  1  0  0  0
  6  7  1  0  0  0
  7  8  2  0  0  0
  7 13  1  0  0  0
  8  9  1  0  0  0
  8 24  1  0  0  0
  9 12  2  0  0  0
  9 14  1  0  0  0
 10 12  1  0  0  0
 10 13  2  0  0  0
 10 25  1  0  0  0
 14 15  1  0  0  0
 14 18  1  0  0  0
 15 16  2  0  0  0
 15 26  1  0  0  0
 16 17  1  0  0  0
 16 27  1  0  0  0
 17 18  2  0  0  0
 17 28  1  0  0  0
 19 20  3  0  0  0
M  END
> <s_m_source_file>
../5cgc_ligand.sdf

> <i_m_source_file_index>
1

> <s_epik_input>
RmMxYyhDbClbY0hdYyhDI04pW2NIXWMxLWMyW2NIXWMobltjSF1uMiktbjNbY0hdW2NIXVtjSF1uMw==

> <s_epik_cmdline>
J2VwaWtfYXBwJywgJy1pbWFlJywgJ2xpZ2FuZF9wcm8ubWFlJywgJy1vbWFlJywgJ2xpZ2FuZF9wcmVwLm1hZScsICctbXMnLCAnMScsICctcGgnLCAnNycsICctcGh0JywgJzAuNScsICctbnQn

> <r_lp_tautomer_probability>
1

> <r_epik_Ionization_Penalty>
  0.0000

> <r_epik_Ionization_Penalty_Charging>
  0.0000

> <r_epik_Ionization_Penalty_Neutral>
  0.0000

> <r_epik_State_Penalty>
 -0.0000

> <r_epik_Charging_Adjusted_Penalty>
0

> <i_epik_Tot_Q>
0

> <i_epik_Tot_abs_Q>
0

$$$$
