5cgd_ligand
                    3D
 Schrodinger Suite 2020-3.
 30 32  0  0  1  0            999 V2000
  -24.0140   17.9110   44.2310 C   0  0  0  0  0  0
  -23.6170   19.1340   44.8010 C   0  0  0  0  0  0
  -22.6430   19.1570   45.8110 C   0  0  0  0  0  0
  -22.0630   17.9510   46.2510 C   0  0  0  0  0  0
  -22.4650   16.7280   45.6750 C   0  0  0  0  0  0
  -23.4510   16.6890   44.6600 C   0  0  0  0  0  0
  -23.8710   15.4120   44.0470 C   0  0  0  0  0  0
  -24.2220   15.3200   42.7010 C   0  0  0  0  0  0
  -24.6060   14.0640   42.2160 C   0  0  0  0  0  0
  -24.6210   12.9940   43.0330 N   0  0  0  0  0  0
  -24.2710   13.1830   44.2920 C   0  0  0  0  0  0
  -23.8980   14.3290   44.8390 N   0  0  0  0  0  0
  -21.0530   17.9710   47.2960 C   0  0  0  0  0  0
  -20.2510   17.9880   48.1270 N   0  0  0  0  0  0
  -24.3330   20.6070   44.2560 Cl  0  0  0  0  0  0
  -25.6970   13.6790   38.1250 C   0  0  0  0  0  0
  -25.4920   12.4980   38.8600 C   0  0  0  0  0  0
  -25.1310   12.5830   40.2130 C   0  0  0  0  0  0
  -24.9910   13.8610   40.7960 C   0  0  0  0  0  0
  -25.1860   14.9940   40.0800 N   0  0  0  0  0  0
  -25.5320   14.9080   38.7810 C   0  0  0  0  0  0
  -26.0450   13.6380   36.8170 F   0  0  0  0  0  0
  -24.7690   17.9063   43.4448 H   0  0  0  0  0  0
  -22.3363   20.1047   46.2535 H   0  0  0  0  0  0
  -22.0095   15.7985   46.0166 H   0  0  0  0  0  0
  -24.1984   16.1939   42.0500 H   0  0  0  0  0  0
  -24.2912   12.3101   44.9445 H   0  0  0  0  0  0
  -25.6125   11.5254   38.3829 H   0  0  0  0  0  0
  -24.9622   11.6813   40.8016 H   0  0  0  0  0  0
  -25.6897   15.8281   38.2183 H   0  0  0  0  0  0
  1  2  2  0  0  0
  1  6  1  0  0  0
  1 23  1  0  0  0
  2  3  1  0  0  0
  2 15  1  0  0  0
  3  4  2  0  0  0
  3 24  1  0  0  0
  4  5  1  0  0  0
  4 13  1  0  0  0
  5  6  2  0  0  0
  5 25  1  0  0  0
  6  7  1  0  0  0
  7  8  2  0  0  0
  7 12  1  0  0  0
  8  9  1  0  0  0
  8 26  1  0  0  0
  9 10  2  0  0  0
  9 19  1  0  0  0
 10 11  1  0  0  0
 11 12  2  0  0  0
 11 27  1  0  0  0
 13 14  3  0  0  0
 16 17  2  0  0  0
 16 21  1  0  0  0
 16 22  1  0  0  0
 17 18  1  0  0  0
 17 28  1  0  0  0
 18 19  2  0  0  0
 18 29  1  0  0  0
 19 20  1  0  0  0
 20 21  2  0  0  0
 21 30  1  0  0  0
M  END
> <s_m_source_file>
../5cgd_ligand.sdf

> <i_m_source_file_index>
1

> <s_epik_input>
TiNDYyhbY0hdMSlbY0hdYyhbY0hdYzFDbCktYzJbY0hdYyhuW2NIXW4yKS1jKG5bY0hdMylbY0hdW2NIXWMzRg==

> <s_epik_cmdline>
J2VwaWtfYXBwJywgJy1pbWFlJywgJ2xpZ2FuZF9wcm8ubWFlJywgJy1vbWFlJywgJ2xpZ2FuZF9wcmVwLm1hZScsICctbXMnLCAnMScsICctcGgnLCAnNycsICctcGh0JywgJzAuNScsICctbnQn

> <r_lp_tautomer_probability>
1

> <r_epik_Ionization_Penalty>
  0.0000

> <r_epik_Ionization_Penalty_Charging>
  0.0000

> <r_epik_Ionization_Penalty_Neutral>
  0.0000

> <r_epik_State_Penalty>
 -0.0000

> <r_epik_Charging_Adjusted_Penalty>
0

> <i_epik_Tot_Q>
0

> <i_epik_Tot_abs_Q>
0

$$$$
