5cgj_ligand
                    3D
 Schrodinger Suite 2020-3.
 60 63  0  0  1  0            999 V2000
   39.1270  -20.5620   -4.7610 C   0  0  0  0  0  0
   39.3700  -19.5780   -5.7380 C   0  0  0  0  0  0
   39.3120  -18.2460   -5.4240 C   0  0  0  0  0  0
   38.4520  -18.4120   -1.7970 C   0  0  0  0  0  0
   38.3910  -17.0890   -1.4720 C   0  0  0  0  0  0
   38.6340  -16.1060   -2.4520 C   0  0  0  0  0  0
   38.9330  -16.4720   -3.7320 C   0  0  0  0  0  0
   39.0360  -17.5290   -7.7460 C   0  0  0  0  0  0
   40.2930  -17.7330   -8.6020 C   0  0  2  0  0  0
   41.3170  -16.7850   -7.9750 C   0  0  0  0  0  0
   40.9730  -16.7640   -6.4920 C   0  0  0  0  0  0
   40.0610  -17.3870  -10.0370 C   0  0  0  0  0  0
   39.3850  -16.4930  -10.5020 O   0  0  0  0  0  0
   40.3270  -23.0500   -3.1500 C   0  0  0  0  0  0
   41.5210  -22.6420   -3.8020 C   0  0  0  0  0  0
   40.2080  -24.9050   -4.7380 C   0  0  0  0  0  0
   43.2810  -22.9520   -5.5930 C   0  0  0  0  0  0
   39.5490  -26.1230   -5.2810 C   0  0  0  0  0  0
   38.4370  -24.7210   -3.0550 C   0  0  0  0  0  0
   38.8270  -20.1940   -3.4740 C   0  0  0  0  0  0
   39.0020  -17.8370   -4.0920 C   0  0  0  0  0  0
   38.7590  -18.8150   -3.1150 C   0  0  0  0  0  0
   39.5530  -17.2190   -6.3840 N   0  3  2  0  0  0
   40.7200  -18.2150  -10.8680 O   0  5  0  0  0  0
   38.5850  -21.1950   -2.5020 N   0  0  0  0  0  0
   39.7000  -22.2220   -1.8590 S   0  0  0  0  0  0
   40.6460  -21.3750   -1.2440 O   0  0  0  0  0  0
   39.0370  -23.0970   -0.9770 O   0  0  0  0  0  0
   42.0320  -23.3550   -4.8890 C   0  0  0  0  0  0
   41.3720  -24.4810   -5.3490 C   0  0  0  0  0  0
   39.6940  -24.1990   -3.6550 C   0  0  0  0  0  0
   42.3010  -21.4400   -3.3780 C   0  0  0  0  0  0
   39.1773  -21.6177   -5.0275 H   0  0  0  0  0  0
   39.6075  -19.8801   -6.7580 H   0  0  0  0  0  0
   38.2620  -19.1652   -1.0324 H   0  0  0  0  0  0
   38.1535  -16.7909   -0.4508 H   0  0  0  0  0  0
   38.5829  -15.0500   -2.1867 H   0  0  0  0  0  0
   39.1203  -15.7050   -4.4835 H   0  0  0  0  0  0
   38.4433  -16.6984   -8.1570 H   0  0  0  0  0  0
   38.4332  -18.4491   -7.7547 H   0  0  0  0  0  0
   40.6190  -18.7831   -8.6356 H   0  0  0  0  0  0
   42.3314  -17.1718   -8.1522 H   0  0  0  0  0  0
   41.2202  -15.7880   -8.4296 H   0  0  0  0  0  0
   41.6474  -17.4429   -5.9495 H   0  0  0  0  0  0
   41.0907  -15.7419   -6.1027 H   0  0  0  0  0  0
   43.6922  -22.0473   -5.1213 H   0  0  0  0  0  0
   43.0558  -22.7446   -6.6495 H   0  0  0  0  0  0
   44.0175  -23.7664   -5.5281 H   0  0  0  0  0  0
   40.1322  -26.5074   -6.1308 H   0  0  0  0  0  0
   38.5327  -25.8707   -5.6179 H   0  0  0  0  0  0
   39.4948  -26.8915   -4.4958 H   0  0  0  0  0  0
   38.1379  -24.0785   -2.2137 H   0  0  0  0  0  0
   38.6019  -25.7464   -2.6927 H   0  0  0  0  0  0
   37.6417  -24.7241   -3.8149 H   0  0  0  0  0  0
   37.5351  -21.2506   -2.1787 H   0  0  0  0  0  0
   41.7725  -25.0359   -6.1974 H   0  0  0  0  0  0
   41.8042  -20.9647   -2.5194 H   0  0  0  0  0  0
   42.3551  -20.7251   -4.2122 H   0  0  0  0  0  0
   43.3178  -21.7455   -3.0903 H   0  0  0  0  0  0
   38.9537  -16.4205   -5.9223 H   0  0  0  0  0  0
  1  2  2  0  0  0
  1 20  1  0  0  0
  1 33  1  0  0  0
  2  3  1  0  0  0
  2 34  1  0  0  0
  3 21  2  0  0  0
  3 23  1  0  0  0
  4  5  2  0  0  0
  4 22  1  0  0  0
  4 35  1  0  0  0
  5  6  1  0  0  0
  5 36  1  0  0  0
  6  7  2  0  0  0
  6 37  1  0  0  0
  7 21  1  0  0  0
  7 38  1  0  0  0
  8  9  1  0  0  0
  8 23  1  0  0  0
  8 39  1  0  0  0
  8 40  1  0  0  0
  9 10  1  0  0  0
  9 12  1  0  0  0
  9 41  1  0  0  0
 10 11  1  0  0  0
 10 42  1  0  0  0
 10 43  1  0  0  0
 11 23  1  0  0  0
 11 44  1  0  0  0
 11 45  1  0  0  0
 12 13  2  0  0  0
 12 24  1  0  0  0
 14 15  2  0  0  0
 14 26  1  0  0  0
 14 31  1  0  0  0
 15 29  1  0  0  0
 15 32  1  0  0  0
 16 18  1  0  0  0
 16 30  1  0  0  0
 16 31  2  0  0  0
 17 29  1  0  0  0
 17 46  1  0  0  0
 17 47  1  0  0  0
 17 48  1  0  0  0
 18 49  1  0  0  0
 18 50  1  0  0  0
 18 51  1  0  0  0
 19 31  1  0  0  0
 19 52  1  0  0  0
 19 53  1  0  0  0
 19 54  1  0  0  0
 20 22  2  0  0  0
 20 25  1  0  0  0
 21 22  1  0  0  0
 23 60  1  0  0  0
 25 26  1  0  0  0
 25 55  1  0  0  0
 26 27  2  0  0  0
 26 28  2  0  0  0
 29 30  2  0  0  0
 30 56  1  0  0  0
 32 57  1  0  0  0
 32 58  1  0  0  0
 32 59  1  0  0  0
M  CHG  2  23   1  24  -1
M  END
> <s_m_source_file>
../5cgj_ligand.sdf

> <i_m_source_file_index>
1

> <s_epik_input>
Tz1DKFtPSF0pW0NAQEhdMVtDSDJdTihbQ0gyXVtDSDJdMSljMltjSF1bY0hdYyhjKGMyMylbY0hdW2NIXVtjSF1bY0hdMylbTkhdUyg9TykoPU8pYzRjKFtDSDNdKWMoW0NIM10pW2NIXWMoW0NIM10pYzRbQ0gzXQ==

> <s_epik_cmdline>
J2VwaWtfYXBwJywgJy1pbWFlJywgJ2xpZ2FuZF9wcm8ubWFlJywgJy1vbWFlJywgJ2xpZ2FuZF9wcmVwLm1hZScsICctbXMnLCAnMScsICctcGgnLCAnNycsICctcGh0JywgJzAuNScsICctbnQn

> <r_lp_tautomer_probability>
1

> <r_epik_Ionization_Penalty>
  0.4027

> <r_epik_Ionization_Penalty_Charging>
  0.2587

> <r_epik_Ionization_Penalty_Neutral>
  0.1440

> <r_epik_State_Penalty>
 -0.0000

> <r_epik_Charging_Adjusted_Penalty>
0.258680117881767

> <i_epik_Tot_Q>
0

> <i_epik_Tot_abs_Q>
2

$$$$
