5ci7_ligand
                    3D
 Schrodinger Suite 2020-3.
 52 54  0  0  1  0            999 V2000
   -4.7170  -41.1960  -17.8050 N   0  0  0  0  0  0
   -3.4090  -40.5840  -17.9560 C   0  0  0  0  0  0
   -1.5640  -39.2060  -17.3170 C   0  0  0  0  0  0
    0.4400  -38.5730  -15.9770 C   0  0  0  0  0  0
    2.4050  -37.1230  -13.2090 C   0  0  0  0  0  0
    1.2760  -36.1520  -13.2390 C   0  0  0  0  0  0
    0.4910  -36.4660  -14.4910 C   0  0  0  0  0  0
   -0.8640  -39.5320  -18.4590 C   0  0  0  0  0  0
   -2.6810  -40.9250  -19.1020 C   0  0  0  0  0  0
   -3.4290  -35.3390  -14.8380 N   0  3  0  0  0  0
   -3.7160  -36.7340  -14.7380 C   0  0  0  0  0  0
   -5.0780  -37.1460  -14.2570 C   0  0  0  0  0  0
   -5.1680  -38.4460  -13.5130 C   0  0  0  0  0  0
   -6.3760  -39.2000  -13.6890 N   0  0  0  0  0  0
   -6.5120  -40.0800  -14.8020 C   0  0  0  0  0  0
   -7.6710  -40.8500  -14.9270 C   0  0  0  0  0  0
   -9.2580  -40.7810  -13.5310 I   0  0  0  0  0  0
   -7.7840  -41.7050  -16.0080 C   0  0  0  0  0  0
   -6.7960  -41.7420  -16.8910 N   0  0  0  0  0  0
   -5.6920  -41.0180  -16.7770 C   0  0  0  0  0  0
   -2.8490  -39.7300  -17.0470 C   0  0  0  0  0  0
   -0.9290  -38.3030  -16.3930 N   0  0  0  0  0  0
    1.0860  -37.6550  -15.0520 N   0  0  0  0  0  0
    2.4200  -37.7650  -14.5350 C   0  0  0  0  0  0
    1.0310  -39.5710  -16.4080 O   0  0  0  0  0  0
   -1.4330  -40.4030  -19.3670 C   0  0  0  0  0  0
   -5.5380  -40.1840  -15.7270 N   0  0  0  0  0  0
   -5.0782  -41.9141  -18.5559 H   0  0  0  0  0  0
    3.3454  -36.5860  -13.0157 H   0  0  0  0  0  0
    2.2332  -37.8605  -12.4112 H   0  0  0  0  0  0
    0.6572  -36.2812  -12.3388 H   0  0  0  0  0  0
    1.6745  -35.1271  -13.2660 H   0  0  0  0  0  0
   -0.5636  -36.6371  -14.2293 H   0  0  0  0  0  0
    0.5625  -35.6201  -15.1905 H   0  0  0  0  0  0
    0.1236  -39.1087  -18.6424 H   0  0  0  0  0  0
   -3.1169  -41.6291  -19.8108 H   0  0  0  0  0  0
   -2.4000  -35.2015  -15.2016 H   0  0  0  0  0  0
   -3.5336  -34.8713  -13.8479 H   0  0  0  0  0  0
   -4.1323  -34.8695  -15.5415 H   0  0  0  0  0  0
   -3.6114  -37.2017  -15.7281 H   0  0  0  0  0  0
   -3.0127  -37.2035  -14.0345 H   0  0  0  0  0  0
   -5.4708  -36.3821  -13.5699 H   0  0  0  0  0  0
   -5.7554  -37.2481  -15.1176 H   0  0  0  0  0  0
   -4.3501  -39.1086  -13.8323 H   0  0  0  0  0  0
   -5.0858  -38.2566  -12.4326 H   0  0  0  0  0  0
   -7.1978  -39.0991  -12.9648 H   0  0  0  0  0  0
   -8.6655  -42.3342  -16.1312 H   0  0  0  0  0  0
   -3.3811  -39.4593  -16.1350 H   0  0  0  0  0  0
   -1.4775  -37.4279  -16.0144 H   0  0  0  0  0  0
    3.1392  -37.2459  -15.1856 H   0  0  0  0  0  0
    2.7162  -38.8190  -14.4288 H   0  0  0  0  0  0
   -0.9029  -40.6739  -20.2801 H   0  0  0  0  0  0
  1  2  1  0  0  0
  1 20  1  0  0  0
  1 28  1  0  0  0
  2  9  2  0  0  0
  2 21  1  0  0  0
  3  8  1  0  0  0
  3 21  2  0  0  0
  3 22  1  0  0  0
  4 22  1  0  0  0
  4 23  1  0  0  0
  4 25  2  0  0  0
  5  6  1  0  0  0
  5 24  1  0  0  0
  5 29  1  0  0  0
  5 30  1  0  0  0
  6  7  1  0  0  0
  6 31  1  0  0  0
  6 32  1  0  0  0
  7 23  1  0  0  0
  7 33  1  0  0  0
  7 34  1  0  0  0
  8 26  2  0  0  0
  8 35  1  0  0  0
  9 26  1  0  0  0
  9 36  1  0  0  0
 10 11  1  0  0  0
 10 37  1  0  0  0
 10 38  1  0  0  0
 10 39  1  0  0  0
 11 12  1  0  0  0
 11 40  1  0  0  0
 11 41  1  0  0  0
 12 13  1  0  0  0
 12 42  1  0  0  0
 12 43  1  0  0  0
 13 14  1  0  0  0
 13 44  1  0  0  0
 13 45  1  0  0  0
 14 15  1  0  0  0
 14 46  1  0  0  0
 15 16  2  0  0  0
 15 27  1  0  0  0
 16 17  1  0  0  0
 16 18  1  0  0  0
 18 19  2  0  0  0
 18 47  1  0  0  0
 19 20  1  0  0  0
 20 27  2  0  0  0
 21 48  1  0  0  0
 22 49  1  0  0  0
 23 24  1  0  0  0
 24 50  1  0  0  0
 24 51  1  0  0  0
 26 52  1  0  0  0
M  CHG  1  10   1
M  END
> <s_m_source_file>
../5ci7_ligand.sdf

> <i_m_source_file_index>
1

> <s_epik_input>
W05IMytdW0NIMl1bQ0gyXVtDSDJdW05IXWMxYyhJKVtjSF1uYyhuMSlbTkhdYzJbY0hdW2NIXVtjSF1jKFtjSF0yKVtOSF1DKD1PKU4zW0NIMl1bQ0gyXVtDSDJdW0NIMl0z

> <s_epik_cmdline>
J2VwaWtfYXBwJywgJy1pbWFlJywgJ2xpZ2FuZF9wcm8ubWFlJywgJy1vbWFlJywgJ2xpZ2FuZF9wcmVwLm1hZScsICctbXMnLCAnMScsICctcGgnLCAnNycsICctcGh0JywgJzAuNScsICctbnQn

> <r_lp_tautomer_probability>
1

> <r_epik_Ionization_Penalty>
  0.0034

> <r_epik_Ionization_Penalty_Charging>
  0.0004

> <r_epik_Ionization_Penalty_Neutral>
  0.0030

> <r_epik_State_Penalty>
 -0.0000

> <r_epik_Charging_Adjusted_Penalty>
0.000367763986539853

> <i_epik_Tot_Q>
1

> <i_epik_Tot_abs_Q>
1

$$$$
