5clm_ligand
                    3D
 Schrodinger Suite 2020-3.
 42 44  0  0  1  0            999 V2000
   69.0250   49.3620    9.2580 C   0  0  0  0  0  0
   69.4340   50.3400    8.1430 C   0  0  1  0  0  0
   68.3380   47.6900    7.6800 C   0  0  0  0  0  0
   68.0490   48.8760    6.7650 C   0  0  0  0  0  0
   69.1140   51.7750    8.5720 C   0  0  0  0  0  0
   71.9160   50.6770    8.6470 C   0  0  0  0  0  0
   72.7080   49.2580    6.3860 C   0  0  0  0  0  0
   74.0650   47.8480    4.6810 C   0  0  0  0  0  0
   73.9470   47.0820    3.4240 C   0  0  0  0  0  0
   72.7330   46.6820    1.3800 C   0  0  0  0  0  0
   73.5970   45.6560    1.0460 C   0  0  0  0  0  0
   73.3540   44.8170   -0.4340 Cl  0  0  0  0  0  0
   72.9040   47.3890    2.5610 N   0  0  0  0  0  0
   74.6430   45.3370    1.9040 C   0  0  0  0  0  0
   74.8160   46.0380    3.0940 C   0  0  0  0  0  0
   75.1370   47.9060    5.2460 O   0  0  0  0  0  0
   72.9510   48.4940    5.2170 N   0  0  0  0  0  0
   71.3650   49.4210    6.6860 C   0  0  0  0  0  0
   73.6690   49.7980    7.2350 C   0  0  0  0  0  0
   73.2670   50.5050    8.3600 C   0  0  0  0  0  0
   70.9330   50.1410    7.8060 C   0  0  0  0  0  0
   68.6070   50.0360    6.9520 N   0  3  0  0  0  0
   67.1800   48.7370    5.7210 N   0  0  0  0  0  0
   69.1640   48.0170    8.8050 O   0  0  0  0  0  0
   69.6701   49.5159   10.1356 H   0  0  0  0  0  0
   67.9765   49.5423    9.5375 H   0  0  0  0  0  0
   67.3914   47.2917    8.0740 H   0  0  0  0  0  0
   68.8571   46.9052    7.1102 H   0  0  0  0  0  0
   69.7128   52.0352    9.4573 H   0  0  0  0  0  0
   68.0445   51.8548    8.8163 H   0  0  0  0  0  0
   69.3549   52.4657    7.7504 H   0  0  0  0  0  0
   71.6201   51.2347    9.5356 H   0  0  0  0  0  0
   71.9115   46.9372    0.7106 H   0  0  0  0  0  0
   75.3317   44.5333    1.6435 H   0  0  0  0  0  0
   75.6297   45.7727    3.7690 H   0  0  0  0  0  0
   72.1365   48.3101    4.5009 H   0  0  0  0  0  0
   70.6201   48.9736    6.0279 H   0  0  0  0  0  0
   74.7292   49.6669    7.0185 H   0  0  0  0  0  0
   74.0178   50.9302    9.0260 H   0  0  0  0  0  0
   68.4729   50.8369    6.2099 H   0  0  0  0  0  0
   66.6921   47.7685    5.5368 H   0  0  0  0  0  0
   66.9679   49.5935    5.0642 H   0  0  0  0  0  0
  1  2  1  0  0  0
  1 24  1  0  0  0
  1 25  1  0  0  0
  1 26  1  0  0  0
  2  5  1  0  0  0
  2 21  1  0  0  0
  2 22  1  0  0  0
  3  4  1  0  0  0
  3 24  1  0  0  0
  3 27  1  0  0  0
  3 28  1  0  0  0
  4 22  2  0  0  0
  4 23  1  0  0  0
  5 29  1  0  0  0
  5 30  1  0  0  0
  5 31  1  0  0  0
  6 20  2  0  0  0
  6 21  1  0  0  0
  6 32  1  0  0  0
  7 17  1  0  0  0
  7 18  1  0  0  0
  7 19  2  0  0  0
  8  9  1  0  0  0
  8 16  2  0  0  0
  8 17  1  0  0  0
  9 13  2  0  0  0
  9 15  1  0  0  0
 10 11  2  0  0  0
 10 13  1  0  0  0
 10 33  1  0  0  0
 11 12  1  0  0  0
 11 14  1  0  0  0
 14 15  2  0  0  0
 14 34  1  0  0  0
 15 35  1  0  0  0
 17 36  1  0  0  0
 18 21  2  0  0  0
 18 37  1  0  0  0
 19 20  1  0  0  0
 19 38  1  0  0  0
 20 39  1  0  0  0
 22 40  1  0  0  0
 23 41  1  0  0  0
 23 42  1  0  0  0
M  CHG  1  22   1
M  END
> <s_m_source_file>
../5clm_ligand.sdf

> <i_m_source_file_index>
1

> <s_epik_input>
W0hdXE49QyhbTkhdMSlcW0NIMl1PW0NIMl1bQ0BAXTEoW0NIM10pYyhbY0hdW2NIXVtjSF0yKVtjSF1jMltOSF1DKD1PKWMzbltjSF1jKENsKVtjSF1bY0hdMw==

> <s_epik_cmdline>
J2VwaWtfYXBwJywgJy1pbWFlJywgJ2xpZ2FuZF9wcm8ubWFlJywgJy1vbWFlJywgJ2xpZ2FuZF9wcmVwLm1hZScsICctbXMnLCAnMScsICctcGgnLCAnNycsICctcGh0JywgJzAuNScsICctbnQn

> <r_lp_tautomer_probability>
1

> <r_epik_Ionization_Penalty>
  0.0009

> <r_epik_Ionization_Penalty_Charging>
  0.0009

> <r_epik_Ionization_Penalty_Neutral>
  0.0000

> <r_epik_State_Penalty>
 -0.0000

> <r_epik_Charging_Adjusted_Penalty>
0.000860517854184103

> <i_epik_Tot_Q>
1

> <i_epik_Tot_abs_Q>
1

> <s_epik_Chemistry_Notes>
This compound has an imine and may undergo hydrolysis.

$$$$
