5cnj_ligand
                    3D
 Schrodinger Suite 2020-3.
 31 33  0  0  1  0            999 V2000
    6.6680   33.9290  -28.0320 C   0  0  1  0  0  0
    7.9760   33.6290  -27.4100 C   0  0  2  0  0  0
    6.9490   34.5060  -32.6910 C   0  0  0  0  0  0
    6.4680   35.9020  -26.8020 C   0  0  0  0  0  0
    5.1380   34.9220  -25.2430 C   0  0  0  0  0  0
    8.5510   32.3980  -27.7650 C   0  0  0  0  0  0
    6.6950   35.5260  -30.8240 C   0  0  0  0  0  0
    6.7490   33.5970  -26.5950 C   0  0  1  0  0  0
    6.1840   35.2980  -28.1410 C   0  0  1  0  0  0
    6.5160   34.7950  -25.8020 C   0  0  1  0  0  0
    5.6980   34.8330  -32.5870 N   0  3  0  0  0  0
    5.5360   35.4760  -31.4080 N   0  0  0  0  0  0
    7.6200   34.9300  -31.5990 N   0  0  0  0  0  0
    7.5750   35.0870  -24.8500 N   0  3  0  0  0  0
    7.7420   31.3260  -27.8330 O   0  0  0  0  0  0
    5.0390   35.0320  -23.9030 O   0  5  0  0  0  0
    9.7600   32.3920  -28.0310 O   0  0  0  0  0  0
    4.2330   34.9220  -26.0920 O   0  0  0  0  0  0
    7.1280   36.2240  -29.3250 S   0  0  0  0  0  0
    6.2300   33.5723  -28.9759 H   0  0  0  0  0  0
    8.9606   34.1127  -27.3286 H   0  0  0  0  0  0
    7.3908   33.9708  -33.5315 H   0  0  0  0  0  0
    7.4332   36.4286  -26.8346 H   0  0  0  0  0  0
    5.6703   36.6143  -26.5444 H   0  0  0  0  0  0
    6.3169   32.8577  -25.9045 H   0  0  0  0  0  0
    5.1015   35.1962  -28.3079 H   0  0  0  0  0  0
    7.3253   36.0021  -24.2930 H   0  0  0  0  0  0
    8.5227   35.2330  -25.3891 H   0  0  0  0  0  0
    7.6784   34.2469  -24.1475 H   0  0  0  0  0  0
    8.1530   30.3433  -28.1076 H   0  0  0  0  0  0
    4.9930   34.5731  -33.3903 H   0  0  0  0  0  0
  1  2  1  0  0  0
  1  8  1  0  0  0
  1  9  1  0  0  0
  1 20  1  0  0  0
  2  6  1  0  0  0
  2  8  1  0  0  0
  2 21  1  0  0  0
  3 11  2  0  0  0
  3 13  1  0  0  0
  3 22  1  0  0  0
  4  9  1  0  0  0
  4 10  1  0  0  0
  4 23  1  0  0  0
  4 24  1  0  0  0
  5 10  1  0  0  0
  5 16  1  0  0  0
  5 18  2  0  0  0
  6 15  1  0  0  0
  6 17  2  0  0  0
  7 12  1  0  0  0
  7 13  2  0  0  0
  7 19  1  0  0  0
  8 10  1  0  0  0
  8 25  1  0  0  0
  9 19  1  0  0  0
  9 26  1  0  0  0
 10 14  1  0  0  0
 11 12  1  0  0  0
 11 31  1  0  0  0
 14 27  1  0  0  0
 14 28  1  0  0  0
 14 29  1  0  0  0
 15 30  1  0  0  0
M  CHG  3  11   1  14   1  16  -1
M  END
> <s_m_source_file>
../5cnj_ligand.sdf

> <i_m_source_file_index>
1

> <s_epik_input>
W09IXUMoPU8pW0NAQEhdMVtDQEhdKFtDQEhdMTIpW0NAXShbTkgzK10pKEMoPU8pW09IXSlbQ0gyXVtDQEhdMlNjM1tuSF1uW2NIXW4z

> <s_epik_cmdline>
J2VwaWtfYXBwJywgJy1pbWFlJywgJ2xpZ2FuZF9wcm8ubWFlJywgJy1vbWFlJywgJ2xpZ2FuZF9wcmVwLm1hZScsICctbXMnLCAnMScsICctcGgnLCAnNycsICctcGh0JywgJzAuNScsICctbnQn

> <r_epik_Ionization_Penalty>
  4.1917

> <r_epik_Ionization_Penalty_Charging>
  0.0106

> <r_epik_Ionization_Penalty_Neutral>
  4.1811

> <r_epik_State_Penalty>
  0.1055

> <r_epik_Charging_Adjusted_Penalty>
0.116120608225027

> <i_epik_Tot_Q>
1

> <i_epik_Tot_abs_Q>
3

$$$$
