5cnm_ligand
                    3D
 Schrodinger Suite 2020-3.
 31 33  0  0  1  0            999 V2000
    3.2740   21.5530   16.9310 C   0  0  1  0  0  0
    4.5820   22.2020   17.2650 C   0  0  2  0  0  0
   -1.7430   23.6130   19.1620 C   0  0  0  0  0  0
    2.5760   20.9180   19.1360 C   0  0  0  0  0  0
    3.6380   18.8680   18.9880 C   0  0  0  0  0  0
    5.4560   22.5610   16.1770 C   0  0  0  0  0  0
    0.3940   23.3460   19.0080 C   0  0  0  0  0  0
    4.3670   20.7470   17.5440 C   0  0  1  0  0  0
    2.1590   21.6730   17.8920 C   0  0  1  0  0  0
    3.9570   20.3420   18.9040 C   0  0  1  0  0  0
   -1.3270   23.0240   20.2620 N   0  3  0  0  0  0
    0.0300   22.8530   20.1680 N   0  0  0  0  0  0
   -0.6830   23.8360   18.3370 N   0  0  0  0  0  0
    4.8410   20.8270   19.9870 N   0  3  0  0  0  0
    6.4980   23.2110   16.4610 O   0  0  0  0  0  0
    4.4590   18.1900   19.6630 O   0  5  0  0  0  0
    5.1170   22.1990   15.0170 O   0  0  0  0  0  0
    2.5950   18.5190   18.3720 O   0  0  0  0  0  0
    1.9870   23.4140   18.3300 S   0  0  0  0  0  0
    2.6593   21.5707   16.0190 H   0  0  0  0  0  0
    4.9088   23.0806   17.8405 H   0  0  0  0  0  0
   -2.7768   23.8812   18.9444 H   0  0  0  0  0  0
    2.5943   21.6064   19.9938 H   0  0  0  0  0  0
    1.8580   20.1079   19.3312 H   0  0  0  0  0  0
    4.9811   19.8621   17.3209 H   0  0  0  0  0  0
    1.3120   21.1336   17.4430 H   0  0  0  0  0  0
    4.4579   20.4776   20.9571 H   0  0  0  0  0  0
    4.8643   21.9267   19.9765 H   0  0  0  0  0  0
    5.8579   20.4372   19.8324 H   0  0  0  0  0  0
    5.7524   22.4500   14.1548 H   0  0  0  0  0  0
   -2.0466   22.7629   21.0520 H   0  0  0  0  0  0
  1  2  1  0  0  0
  1  8  1  0  0  0
  1  9  1  0  0  0
  1 20  1  0  0  0
  2  6  1  0  0  0
  2  8  1  0  0  0
  2 21  1  0  0  0
  3 11  2  0  0  0
  3 13  1  0  0  0
  3 22  1  0  0  0
  4  9  1  0  0  0
  4 10  1  0  0  0
  4 23  1  0  0  0
  4 24  1  0  0  0
  5 10  1  0  0  0
  5 16  1  0  0  0
  5 18  2  0  0  0
  6 15  2  0  0  0
  6 17  1  0  0  0
  7 12  1  0  0  0
  7 13  2  0  0  0
  7 19  1  0  0  0
  8 10  1  0  0  0
  8 25  1  0  0  0
  9 19  1  0  0  0
  9 26  1  0  0  0
 10 14  1  0  0  0
 11 12  1  0  0  0
 11 31  1  0  0  0
 14 27  1  0  0  0
 14 28  1  0  0  0
 14 29  1  0  0  0
 17 30  1  0  0  0
M  CHG  3  11   1  14   1  16  -1
M  END
> <s_m_source_file>
../5cnm_ligand.sdf

> <i_m_source_file_index>
1

> <s_epik_input>
Tz1DKFtPSF0pW0NAQEhdMVtDQEhdKFtDQEhdMTIpW0NAXShbTkgzK10pKEMoPU8pW09IXSlbQ0gyXVtDQEhdMlNjM1tuSF1uW2NIXW4z

> <s_epik_cmdline>
J2VwaWtfYXBwJywgJy1pbWFlJywgJ2xpZ2FuZF9wcm8ubWFlJywgJy1vbWFlJywgJ2xpZ2FuZF9wcmVwLm1hZScsICctbXMnLCAnMScsICctcGgnLCAnNycsICctcGh0JywgJzAuNScsICctbnQn

> <r_epik_Ionization_Penalty>
  4.1917

> <r_epik_Ionization_Penalty_Charging>
  0.0106

> <r_epik_Ionization_Penalty_Neutral>
  4.1811

> <r_epik_State_Penalty>
  0.1055

> <r_epik_Charging_Adjusted_Penalty>
0.116120608225027

> <i_epik_Tot_Q>
1

> <i_epik_Tot_abs_Q>
3

$$$$
