5cqu_ligand
                    3D
 Schrodinger Suite 2020-3.
 41 43  0  0  1  0            999 V2000
    4.7400   -9.1450   -7.6670 N   0  3  0  0  0  0
    4.1620   -8.1890   -8.4900 C   0  0  0  0  0  0
    4.9920   -7.6380   -9.6010 C   0  0  0  0  0  0
    4.7600   -6.2210  -10.0100 C   0  0  0  0  0  0
    5.0650   -5.0940   -8.9530 C   0  0  0  0  0  0
    4.9340   -3.7420   -9.3590 N   0  0  0  0  0  0
    5.3110   -3.2020  -10.5710 C   0  0  0  0  0  0
    4.9700   -1.7550  -10.5080 C   0  0  0  0  0  0
    5.1810   -0.6510  -11.6170 C   0  0  0  0  0  0
    4.2390   -0.6260  -12.7510 C   0  0  0  0  0  0
    4.5450   -1.5690  -13.8990 N   0  0  0  0  0  0
    4.6330   -1.2250  -15.1080 N   0  0  0  0  0  0
    4.9280   -2.3690  -15.8690 C   0  0  0  0  0  0
    5.1520   -2.6320  -17.3120 C   0  0  0  0  0  0
    5.0500   -1.2400  -18.5230 Br  0  0  0  0  0  0
    5.4290   -3.9050  -17.7320 C   0  0  0  0  0  0
    5.7310   -4.3020  -19.6320 Br  0  0  0  0  0  0
    5.5040   -4.9560  -16.8130 C   0  0  0  0  0  0
    5.8970   -6.7330  -17.4360 Br  0  0  0  0  0  0
    5.2790   -4.6980  -15.3500 C   0  0  0  0  0  0
    5.3830   -6.1830  -14.0460 Br  0  0  0  0  0  0
    5.0060   -3.4510  -14.9280 C   0  0  0  0  0  0
    4.7580   -2.8860  -13.7300 N   0  0  0  0  0  0
    4.4020   -1.5960   -9.2030 N   0  0  0  0  0  0
    4.3980   -2.7250   -8.5850 N   0  0  0  0  0  0
    4.0150   -9.4554   -6.9002 H   0  0  0  0  0  0
    5.6297   -8.7197   -7.1796 H   0  0  0  0  0  0
    5.0335  -10.0178   -8.2688 H   0  0  0  0  0  0
    3.2723   -8.6143   -8.9774 H   0  0  0  0  0  0
    3.8684   -7.3162   -7.8883 H   0  0  0  0  0  0
    6.0552   -7.6857   -9.3228 H   0  0  0  0  0  0
    4.8245   -8.2306  -10.5125 H   0  0  0  0  0  0
    5.3924   -5.9816  -10.8776 H   0  0  0  0  0  0
    3.7020   -6.0855  -10.2790 H   0  0  0  0  0  0
    4.3832   -5.2005   -8.0964 H   0  0  0  0  0  0
    6.1052   -5.1871   -8.6075 H   0  0  0  0  0  0
    5.7677   -3.7300  -11.4081 H   0  0  0  0  0  0
    5.1071    0.3468  -11.1598 H   0  0  0  0  0  0
    6.1751   -0.7733  -12.0717 H   0  0  0  0  0  0
    3.2328   -0.8957  -12.3978 H   0  0  0  0  0  0
    4.2163    0.3838  -13.1866 H   0  0  0  0  0  0
  1  2  1  0  0  0
  1 26  1  0  0  0
  1 27  1  0  0  0
  1 28  1  0  0  0
  2  3  1  0  0  0
  2 29  1  0  0  0
  2 30  1  0  0  0
  3  4  1  0  0  0
  3 31  1  0  0  0
  3 32  1  0  0  0
  4  5  1  0  0  0
  4 33  1  0  0  0
  4 34  1  0  0  0
  5  6  1  0  0  0
  5 35  1  0  0  0
  5 36  1  0  0  0
  6  7  1  0  0  0
  6 25  1  0  0  0
  7  8  2  0  0  0
  7 37  1  0  0  0
  8  9  1  0  0  0
  8 24  1  0  0  0
  9 10  1  0  0  0
  9 38  1  0  0  0
  9 39  1  0  0  0
 10 11  1  0  0  0
 10 40  1  0  0  0
 10 41  1  0  0  0
 11 12  1  0  0  0
 11 23  1  0  0  0
 12 13  2  0  0  0
 13 14  1  0  0  0
 13 22  1  0  0  0
 14 15  1  0  0  0
 14 16  2  0  0  0
 16 17  1  0  0  0
 16 18  1  0  0  0
 18 19  1  0  0  0
 18 20  2  0  0  0
 20 21  1  0  0  0
 20 22  1  0  0  0
 22 23  2  0  0  0
 24 25  2  0  0  0
M  CHG  1   1   1
M  END
> <s_m_source_file>
../5cqu_ligand.sdf

> <i_m_source_file_index>
1

> <s_epik_input>
W05IMytdW0NIMl1bQ0gyXVtDSDJdW0NIMl1uMVtjSF1jKG5uMSlbQ0gyXVtDSDJdbihuMiluYyhjMjMpYyhCciljKEJyKWMoQnIpYzNCcg==

> <s_epik_cmdline>
J2VwaWtfYXBwJywgJy1pbWFlJywgJ2xpZ2FuZF9wcm8ubWFlJywgJy1vbWFlJywgJ2xpZ2FuZF9wcmVwLm1hZScsICctbXMnLCAnMScsICctcGgnLCAnNycsICctcGh0JywgJzAuNScsICctbnQn

> <r_lp_tautomer_probability>
1

> <r_epik_Ionization_Penalty>
  0.0007

> <r_epik_Ionization_Penalty_Charging>
  0.0007

> <r_epik_Ionization_Penalty_Neutral>
  0.0000

> <r_epik_State_Penalty>
 -0.0000

> <r_epik_Charging_Adjusted_Penalty>
0.000699413547110878

> <i_epik_Tot_Q>
1

> <i_epik_Tot_abs_Q>
1

$$$$
