5cs2_ligand
                    3D
 Schrodinger Suite 2020-3.
156161  0  0  1  0            999 V2000
   31.6960  -33.7090   -2.5490 C   0  0  3  0  0  0
   32.4850  -33.3850   -3.8410 C   0  0  1  0  0  0
   32.5780  -34.5100   -4.8430 C   0  0  0  0  0  0
   31.8070  -32.5340   -1.6840 N   0  0  0  0  0  0
   32.1230  -35.0100   -1.9000 C   0  0  0  0  0  0
   33.2090  -34.9460   -1.3670 O   0  0  0  0  0  0
   31.8530  -34.6580   -5.9530 C   0  0  0  0  0  0
   32.2780  -35.6820   -6.6600 N   0  0  0  0  0  0
   31.6240  -36.1160   -7.9130 C   0  0  0  0  0  0
   30.5450  -35.0980   -8.3930 C   0  0  0  0  0  0
   31.0680  -37.5550   -7.7290 C   0  0  0  0  0  0
   33.3830  -36.2240   -6.0880 C   0  0  0  0  0  0
   33.6660  -35.5490   -4.9080 C   0  0  0  0  0  0
   34.7680  -35.8300   -4.1030 C   0  0  0  0  0  0
   35.5700  -36.9130   -4.4900 C   0  0  0  0  0  0
   35.2810  -37.6390   -5.6520 C   0  0  0  0  0  0
   34.1860  -37.3100   -6.4620 C   0  0  0  0  0  0
   31.9750  -32.1740   -4.4230 O   0  0  0  0  0  0
   32.6980  -36.0660   -9.0400 C   0  0  2  0  0  0
   33.1610  -34.6080   -9.4510 C   0  0  0  0  0  0
   32.3990  -35.4620  -10.2680 O   0  0  0  0  0  0
   31.3770  -36.1550   -1.8720 N   0  0  0  0  0  0
   31.9330  -37.3450   -1.2170 C   0  0  0  0  0  0
   30.0660  -36.2560   -2.5460 C   0  0  1  0  0  0
   29.9640  -37.2420   -3.7570 C   0  0  0  0  0  0
   28.5330  -37.5610   -4.3040 C   0  0  2  0  0  0
   28.5570  -38.8560   -5.1750 C   0  0  0  0  0  0
   27.3000  -38.9980   -5.8660 O   0  0  0  0  0  0
   27.9480  -36.3990   -5.1600 C   0  0  0  0  0  0
   29.0530  -36.6340   -1.4870 C   0  0  0  0  0  0
   28.6070  -37.7680   -1.5020 O   0  0  0  0  0  0
   28.6490  -35.7390   -0.5570 N   0  0  0  0  0  0
   27.6760  -36.1930    0.4400 C   0  0  2  0  0  0
   26.6910  -35.1110    0.8310 C   0  0  0  0  0  0
   25.6750  -35.4800    1.3980 O   0  0  0  0  0  0
   28.4060  -36.6950    1.7140 C   0  0  0  0  0  0
   27.0030  -33.8130    0.5520 N   0  0  0  0  0  0
   26.1380  -32.6720    0.8950 C   0  0  2  0  0  0
   26.4350  -31.5170   -0.0420 C   0  0  0  0  0  0
   26.3030  -32.1630    2.3590 C   0  0  2  0  0  0
   27.6320  -31.6210    2.5060 O   0  0  0  0  0  0
   27.6950  -30.5280    3.4410 C   0  0  0  0  0  0
   26.0360  -33.2380    3.4170 C   0  0  0  0  0  0
   27.0860  -34.0410    3.8830 C   0  0  0  0  0  0
   26.8570  -35.0120    4.8620 C   0  0  0  0  0  0
   25.5700  -35.1800    5.3760 C   0  0  0  0  0  0
   24.5210  -34.3730    4.9200 C   0  0  0  0  0  0
   24.7520  -33.4000    3.9450 C   0  0  0  0  0  0
   27.3400  -31.6270   -0.8560 O   0  0  0  0  0  0
   25.6970  -30.3880    0.0890 N   0  0  0  0  0  0
   25.9350  -29.1990   -0.7400 C   0  0  2  0  0  0
   26.7480  -28.2450    0.1240 C   0  0  0  0  0  0
   26.1680  -27.8820    1.1300 O   0  0  0  0  0  0
   24.6310  -28.5460   -1.3080 C   0  0  0  0  0  0
   24.9380  -27.2330   -2.0860 C   0  0  0  0  0  0
   23.8330  -29.5210   -2.2240 C   0  0  0  0  0  0
   28.0390  -27.8960   -0.1550 N   0  0  0  0  0  0
   28.7700  -27.0080    0.7530 C   0  0  0  0  0  0
   28.7220  -28.3790   -1.3700 C   0  0  1  0  0  0
   28.9260  -27.5350   -2.6740 C   0  0  0  0  0  0
   29.3980  -28.3300   -3.9300 C   0  0  0  0  0  0
   28.3090  -29.3490   -4.3640 C   0  0  0  0  0  0
   29.7650  -27.4140   -5.1210 C   0  0  0  0  0  0
   30.0440  -29.0260   -0.9770 C   0  0  0  0  0  0
   31.1020  -28.4610   -1.2170 O   0  0  0  0  0  0
   30.9960  -32.2850   -0.6340 C   0  0  0  0  0  0
   31.1660  -30.9660    0.0870 C   0  0  2  0  0  0
   30.0790  -33.0210   -0.2910 O   0  0  0  0  0  0
   31.2440  -31.1600    1.6290 C   0  0  2  0  0  0
   31.3760  -29.7890    2.3510 C   0  0  0  0  0  0
   32.4340  -32.0000    2.0550 C   0  0  0  0  0  0
   32.3500  -33.2630    2.5000 C   0  0  0  0  0  0
   31.0260  -33.9930    2.5810 C   0  0  0  0  0  0
   33.5750  -34.0410    2.9330 C   0  0  0  0  0  0
   29.9810  -30.2130   -0.3330 N   0  0  0  0  0  0
   31.7820  -32.5630   -1.5310 O   0  0  0  0  0  0
   33.5350  -33.1778   -3.5868 H   0  0  0  0  0  0
   31.0192  -34.0156   -6.2362 H   0  0  0  0  0  0
   29.7282  -35.0554   -7.6575 H   0  0  0  0  0  0
   30.1456  -35.4188   -9.3664 H   0  0  0  0  0  0
   31.0001  -34.1016   -8.4937 H   0  0  0  0  0  0
   30.3138  -37.5571   -6.9283 H   0  0  0  0  0  0
   31.8904  -38.2342   -7.4599 H   0  0  0  0  0  0
   30.6062  -37.8925   -8.6686 H   0  0  0  0  0  0
   34.9952  -35.2375   -3.2167 H   0  0  0  0  0  0
   36.4283  -37.1930   -3.8793 H   0  0  0  0  0  0
   35.9203  -38.4763   -5.9318 H   0  0  0  0  0  0
   33.9641  -37.8848   -7.3612 H   0  0  0  0  0  0
   31.8557  -31.2734   -3.8027 H   0  0  0  0  0  0
   33.1396  -37.0424   -8.7915 H   0  0  0  0  0  0
   32.7503  -33.8782   -8.7378 H   0  0  0  0  0  0
   34.2596  -34.5549   -9.4381 H   0  0  0  0  0  0
   32.9062  -37.0958   -0.7688 H   0  0  0  0  0  0
   32.0657  -38.1446   -1.9607 H   0  0  0  0  0  0
   31.2438  -37.6864   -0.4306 H   0  0  0  0  0  0
   29.9098  -35.2497   -2.9619 H   0  0  0  0  0  0
   30.5194  -36.8305   -4.6127 H   0  0  0  0  0  0
   30.3931  -38.2148   -3.4750 H   0  0  0  0  0  0
   27.8854  -37.6994   -3.4257 H   0  0  0  0  0  0
   29.3724  -38.7883   -5.9102 H   0  0  0  0  0  0
   28.7188  -39.7304   -4.5275 H   0  0  0  0  0  0
   27.1321  -39.8578   -6.5312 H   0  0  0  0  0  0
   27.9242  -35.4775   -4.5598 H   0  0  0  0  0  0
   26.9268  -36.6560   -5.4780 H   0  0  0  0  0  0
   28.5798  -36.2428   -6.0468 H   0  0  0  0  0  0
   29.0224  -34.7047   -0.5299 H   0  0  0  0  0  0
   27.1218  -36.9911   -0.0756 H   0  0  0  0  0  0
   29.1240  -37.4817    1.4392 H   0  0  0  0  0  0
   27.6694  -37.1020    2.4223 H   0  0  0  0  0  0
   28.9421  -35.8571    2.1836 H   0  0  0  0  0  0
   27.9621  -33.6421    0.0412 H   0  0  0  0  0  0
   25.1230  -33.0720    0.7543 H   0  0  0  0  0  0
   25.5978  -31.3438    2.5626 H   0  0  0  0  0  0
   28.7300  -30.1614    3.5073 H   0  0  0  0  0  0
   27.3642  -30.8734    4.4316 H   0  0  0  0  0  0
   27.0389  -29.7142    3.0985 H   0  0  0  0  0  0
   28.0893  -33.9072    3.4787 H   0  0  0  0  0  0
   27.6772  -35.6334    5.2214 H   0  0  0  0  0  0
   25.3816  -35.9407    6.1336 H   0  0  0  0  0  0
   23.5188  -34.5046    5.3279 H   0  0  0  0  0  0
   23.9339  -32.7693    3.5971 H   0  0  0  0  0  0
   24.8985  -30.3802    0.8455 H   0  0  0  0  0  0
   26.5061  -29.5264   -1.6213 H   0  0  0  0  0  0
   24.0030  -28.3027   -0.4383 H   0  0  0  0  0  0
   25.5015  -26.5459   -1.4377 H   0  0  0  0  0  0
   23.9938  -26.7581   -2.3908 H   0  0  0  0  0  0
   25.5357  -27.4673   -2.9792 H   0  0  0  0  0  0
   23.6170  -30.4480   -1.6726 H   0  0  0  0  0  0
   24.4302  -29.7563   -3.1173 H   0  0  0  0  0  0
   22.8883  -29.0471   -2.5289 H   0  0  0  0  0  0
   28.1249  -26.7411    1.6031 H   0  0  0  0  0  0
   29.0640  -26.0948    0.2149 H   0  0  0  0  0  0
   29.6698  -27.5216    1.1226 H   0  0  0  0  0  0
   27.8977  -29.0439   -1.6673 H   0  0  0  0  0  0
   27.9760  -27.0556   -2.9528 H   0  0  0  0  0  0
   29.6881  -26.7622   -2.4951 H   0  0  0  0  0  0
   30.3174  -28.8629   -3.6459 H   0  0  0  0  0  0
   28.0529  -29.9968   -3.5127 H   0  0  0  0  0  0
   28.6919  -29.9648   -5.1912 H   0  0  0  0  0  0
   27.4110  -28.8070   -4.6955 H   0  0  0  0  0  0
   30.5362  -26.6953   -4.8068 H   0  0  0  0  0  0
   28.8695  -26.8688   -5.4538 H   0  0  0  0  0  0
   30.1503  -28.0265   -5.9495 H   0  0  0  0  0  0
   32.0786  -30.4229   -0.1996 H   0  0  0  0  0  0
   30.3273  -31.6942    1.9193 H   0  0  0  0  0  0
   30.5303  -29.1439    2.0704 H   0  0  0  0  0  0
   32.3191  -29.3073    2.0535 H   0  0  0  0  0  0
   31.3719  -29.9461    3.4397 H   0  0  0  0  0  0
   33.4146  -31.5072    1.9803 H   0  0  0  0  0  0
   30.2188  -33.3270    2.2421 H   0  0  0  0  0  0
   30.8380  -34.2971    3.6213 H   0  0  0  0  0  0
   31.0593  -34.8852    1.9385 H   0  0  0  0  0  0
   34.4678  -33.4069    2.8288 H   0  0  0  0  0  0
   33.6841  -34.9346    2.3009 H   0  0  0  0  0  0
   33.4628  -34.3465    3.9837 H   0  0  0  0  0  0
   28.9758  -30.6095   -0.1271 H   0  0  0  0  0  0
  1  2  1  0  0  0
  1  4  1  0  0  0
  1  5  1  0  0  0
  1 76  1  0  0  0
  2  3  1  0  0  0
  2 18  1  0  0  0
  2 77  1  0  0  0
  3  7  2  0  0  0
  3 13  1  0  0  0
  4 66  1  0  0  0
  4 76  1  0  0  0
  5  6  2  0  0  0
  5 22  1  0  0  0
  7  8  1  0  0  0
  7 78  1  0  0  0
  8  9  1  0  0  0
  8 12  1  0  0  0
  9 10  1  0  0  0
  9 11  1  0  0  0
  9 19  1  0  0  0
 10 79  1  0  0  0
 10 80  1  0  0  0
 10 81  1  0  0  0
 11 82  1  0  0  0
 11 83  1  0  0  0
 11 84  1  0  0  0
 12 13  2  0  0  0
 12 17  1  0  0  0
 13 14  1  0  0  0
 14 15  2  0  0  0
 14 85  1  0  0  0
 15 16  1  0  0  0
 15 86  1  0  0  0
 16 17  2  0  0  0
 16 87  1  0  0  0
 17 88  1  0  0  0
 18 89  1  0  0  0
 19 20  1  0  0  0
 19 21  1  0  0  0
 19 90  1  0  0  0
 20 21  1  0  0  0
 20 91  1  0  0  0
 20 92  1  0  0  0
 22 23  1  0  0  0
 22 24  1  0  0  0
 23 93  1  0  0  0
 23 94  1  0  0  0
 23 95  1  0  0  0
 24 25  1  0  0  0
 24 30  1  0  0  0
 24 96  1  0  0  0
 25 26  1  0  0  0
 25 97  1  0  0  0
 25 98  1  0  0  0
 26 27  1  0  0  0
 26 29  1  0  0  0
 26 99  1  0  0  0
 27 28  1  0  0  0
 27100  1  0  0  0
 27101  1  0  0  0
 28102  1  0  0  0
 29103  1  0  0  0
 29104  1  0  0  0
 29105  1  0  0  0
 30 31  2  0  0  0
 30 32  1  0  0  0
 32 33  1  0  0  0
 32106  1  0  0  0
 33 34  1  0  0  0
 33 36  1  0  0  0
 33107  1  0  0  0
 34 35  2  0  0  0
 34 37  1  0  0  0
 36108  1  0  0  0
 36109  1  0  0  0
 36110  1  0  0  0
 37 38  1  0  0  0
 37111  1  0  0  0
 38 39  1  0  0  0
 38 40  1  0  0  0
 38112  1  0  0  0
 39 49  2  0  0  0
 39 50  1  0  0  0
 40 41  1  0  0  0
 40 43  1  0  0  0
 40113  1  0  0  0
 41 42  1  0  0  0
 42114  1  0  0  0
 42115  1  0  0  0
 42116  1  0  0  0
 43 44  2  0  0  0
 43 48  1  0  0  0
 44 45  1  0  0  0
 44117  1  0  0  0
 45 46  2  0  0  0
 45118  1  0  0  0
 46 47  1  0  0  0
 46119  1  0  0  0
 47 48  2  0  0  0
 47120  1  0  0  0
 48121  1  0  0  0
 50 51  1  0  0  0
 50122  1  0  0  0
 51 52  1  0  0  0
 51 54  1  0  0  0
 51123  1  0  0  0
 52 53  2  0  0  0
 52 57  1  0  0  0
 54 55  1  0  0  0
 54 56  1  0  0  0
 54124  1  0  0  0
 55125  1  0  0  0
 55126  1  0  0  0
 55127  1  0  0  0
 56128  1  0  0  0
 56129  1  0  0  0
 56130  1  0  0  0
 57 58  1  0  0  0
 57 59  1  0  0  0
 58131  1  0  0  0
 58132  1  0  0  0
 58133  1  0  0  0
 59 60  1  0  0  0
 59 64  1  0  0  0
 59134  1  0  0  0
 60 61  1  0  0  0
 60135  1  0  0  0
 60136  1  0  0  0
 61 62  1  0  0  0
 61 63  1  0  0  0
 61137  1  0  0  0
 62138  1  0  0  0
 62139  1  0  0  0
 62140  1  0  0  0
 63141  1  0  0  0
 63142  1  0  0  0
 63143  1  0  0  0
 64 65  2  0  0  0
 64 75  1  0  0  0
 66 67  1  0  0  0
 66 68  2  0  0  0
 67 69  1  0  0  0
 67 75  1  0  0  0
 67144  1  0  0  0
 69 70  1  0  0  0
 69 71  1  0  0  0
 69145  1  0  0  0
 70146  1  0  0  0
 70147  1  0  0  0
 70148  1  0  0  0
 71 72  2  0  0  0
 71149  1  0  0  0
 72 73  1  0  0  0
 72 74  1  0  0  0
 73150  1  0  0  0
 73151  1  0  0  0
 73152  1  0  0  0
 74153  1  0  0  0
 74154  1  0  0  0
 74155  1  0  0  0
 75156  1  0  0  0
M  END
> <s_m_source_file>
../5cs2_ligand.sdf

> <i_m_source_file_index>
1

> <s_epik_input>
TzFbQ0gyXVtDQEhdMUMoW0NIM10pKFtDSDNdKW4yW2NIXWMoYyhjMjMpW2NIXVtjSF1bY0hdW2NIXTMpW0NAQEhdKFtPSF0pQzQ1TihPNSlDKD1PKVtDQEhdKFtDQEhdKFtDSDNdKVtDSF09QyhbQ0gzXSlbQ0gzXSlbTkhdQyg9TylbQ0BIXShbQ0gyXVtDSF0oW0NIM10pW0NIM10pTihbQ0gzXSlDKD1PKVtDQEhdKFtDSF0oW0NIM10pW0NIM10pW05IXUMoPU8pW0NASF0oW0NASF0oT1tDSDNdKWM2W2NIXVtjSF1bY0hdW2NIXVtjSF02KVtOSF1DKD1PKVtDQEhdKFtDSDNdKVtOSF1DKD1PKVtDQEBIXShOKEM0PU8pW0NIM10pW0NIMl1bQ0BASF0oW0NIM10pW0NIMl1bT0hd

> <s_epik_cmdline>
J2VwaWtfYXBwJywgJy1pbWFlJywgJ2xpZ2FuZF9wcm8ubWFlJywgJy1vbWFlJywgJ2xpZ2FuZF9wcmVwLm1hZScsICctbXMnLCAnMScsICctcGgnLCAnNycsICctcGh0JywgJzAuNScsICctbnQn

> <s_epik_pKa_notes>
Molecule size exceeds maximum supported for generating protonation states

> <s_epik_Chemistry_Notes>
This compound has a N-S or N-O group and may undergo hydrolysis at high or low pH.

$$$$
