5cs3_ligand
                    3D
 Schrodinger Suite 2020-3.
 36 36  0  0  1  0            999 V2000
   -4.7020   30.7240  -13.7350 O   0  0  0  0  0  0
   -5.6300   30.1500  -12.7580 S   0  0  0  0  0  0
   -6.3640   28.9310  -13.2610 O   0  0  0  0  0  0
   -6.6390   31.2060  -12.3700 O   0  5  0  0  0  0
   -4.6490   29.5150  -11.3380 C   0  0  0  0  0  0
   -3.5490   28.5770  -11.8470 C   0  0  0  0  0  0
   -2.7580   27.8730  -10.7270 C   0  0  0  0  0  0
   -2.6500   26.4020  -10.9310 N   0  0  2  0  0  0
   -2.4280   25.7630   -9.6010 C   0  0  0  0  0  0
   -1.6680   24.4110   -9.6530 C   0  0  0  0  0  0
   -0.4980   24.4750  -10.5620 N   0  3  1  0  0  0
   -1.0130   24.7180  -11.9200 C   0  0  0  0  0  0
   -1.6900   26.1030  -12.0230 C   0  0  0  0  0  0
    0.4780   25.5120  -10.1420 C   0  0  0  0  0  0
    1.8200   24.8860   -9.7870 C   0  0  0  0  0  0
    2.7420   25.0560  -10.8750 O   0  0  0  0  0  0
   -4.1892   30.3592  -10.8033 H   0  0  0  0  0  0
   -5.3099   28.9635  -10.6532 H   0  0  0  0  0  0
   -3.9978   27.7904  -12.4713 H   0  0  0  0  0  0
   -2.8252   29.1508  -12.4444 H   0  0  0  0  0  0
   -1.7375   28.2815  -10.6864 H   0  0  0  0  0  0
   -3.2591   28.0417   -9.7624 H   0  0  0  0  0  0
   -1.8362   26.4373   -8.9645 H   0  0  0  0  0  0
   -3.3986   25.5651   -9.1227 H   0  0  0  0  0  0
   -1.3102   24.1525   -8.6454 H   0  0  0  0  0  0
   -2.3452   23.6233  -10.0149 H   0  0  0  0  0  0
    0.0559   23.5249  -10.5393 H   0  0  0  0  0  0
   -0.1819   24.6800  -12.6396 H   0  0  0  0  0  0
   -1.7541   23.9460  -12.1747 H   0  0  0  0  0  0
   -2.2139   26.1317  -12.9898 H   0  0  0  0  0  0
   -0.8855   26.8531  -12.0196 H   0  0  0  0  0  0
    0.6288   26.2277  -10.9636 H   0  0  0  0  0  0
    0.0918   26.0430   -9.2594 H   0  0  0  0  0  0
    2.2257   25.3735   -8.8882 H   0  0  0  0  0  0
    1.6835   23.8121   -9.5917 H   0  0  0  0  0  0
    3.7665   24.6638  -10.7941 H   0  0  0  0  0  0
  1  2  2  0  0  0
  2  3  2  0  0  0
  2  4  1  0  0  0
  2  5  1  0  0  0
  5  6  1  0  0  0
  5 17  1  0  0  0
  5 18  1  0  0  0
  6  7  1  0  0  0
  6 19  1  0  0  0
  6 20  1  0  0  0
  7  8  1  0  0  0
  7 21  1  0  0  0
  7 22  1  0  0  0
  8  9  1  0  0  0
  8 13  1  0  0  0
  9 10  1  0  0  0
  9 23  1  0  0  0
  9 24  1  0  0  0
 10 11  1  0  0  0
 10 25  1  0  0  0
 10 26  1  0  0  0
 11 12  1  0  0  0
 11 14  1  0  0  0
 11 27  1  0  0  0
 12 13  1  0  0  0
 12 28  1  0  0  0
 12 29  1  0  0  0
 13 30  1  0  0  0
 13 31  1  0  0  0
 14 15  1  0  0  0
 14 32  1  0  0  0
 14 33  1  0  0  0
 15 16  1  0  0  0
 15 34  1  0  0  0
 15 35  1  0  0  0
 16 36  1  0  0  0
M  CHG  2   4  -1  11   1
M  END
> <s_m_source_file>
../5cs3_ligand.sdf

> <i_m_source_file_index>
1

> <s_epik_input>
Tz1TKD1PKShbT0hdKVtDSDJdW0NIMl1bQ0gyXVtOQEBIK10xW0NIMl1bQ0gyXVtOQEBIK10oW0NIMl1bQ0gyXTEpW0NIMl1bQ0gyXVtPSF0=

> <s_epik_cmdline>
J2VwaWtfYXBwJywgJy1pbWFlJywgJ2xpZ2FuZF9wcm8ubWFlJywgJy1vbWFlJywgJ2xpZ2FuZF9wcmVwLm1hZScsICctbXMnLCAnMScsICctcGgnLCAnNycsICctcGh0JywgJzAuNScsICctbnQn

> <r_epik_Ionization_Penalty>
  0.0661

> <r_epik_Ionization_Penalty_Charging>
  0.0653

> <r_epik_Ionization_Penalty_Neutral>
  0.0009

> <r_epik_State_Penalty>
  0.3448

> <r_epik_Charging_Adjusted_Penalty>
0.410027525732661

> <i_epik_Tot_Q>
0

> <i_epik_Tot_abs_Q>
2

$$$$
