5cs5_ligand
                    3D
 Schrodinger Suite 2020-3.
 35 35  0  0  1  0            999 V2000
   -5.7280   29.6210  -13.0170 C   0  0  0  0  0  0
   -5.2890   29.4700  -11.5630 C   0  0  0  0  0  0
   -4.2700   28.4300  -11.5250 N   0  0  3  0  0  0
   -4.4630   27.1670  -12.2420 C   0  0  0  0  0  0
   -3.0650   28.6750  -10.7430 C   0  0  0  0  0  0
   -1.3250   24.8810   -9.8040 C   0  0  0  0  0  0
   -1.3190   25.4410  -11.2260 C   0  0  0  0  0  0
   -2.3630   26.4570  -11.3110 N   0  3  0  0  0  0
   -2.6700   27.3190  -10.1670 C   0  0  0  0  0  0
   -3.0830   26.5990  -12.5760 C   0  0  0  0  0  0
   -5.5700   31.1950  -13.5270 S   0  0  0  0  0  0
    0.1660   25.0850   -9.0950 S   0  0  0  0  0  0
   -4.1540   31.6190  -13.4420 O   0  0  0  0  0  0
   -5.9980   31.2750  -14.9430 O   0  5  0  0  0  0
   -6.4230   32.0740  -12.6960 O   0  0  0  0  0  0
    1.2060   24.4550   -9.9420 O   0  0  0  0  0  0
    0.4520   26.5320   -8.9700 O   0  0  0  0  0  0
    0.1770   24.4660   -7.7460 O   0  5  0  0  0  0
   -5.1048   28.9789  -13.6567 H   0  0  0  0  0  0
   -6.7823   29.3229  -13.1145 H   0  0  0  0  0  0
   -4.8798   30.4253  -11.2025 H   0  0  0  0  0  0
   -6.1544   29.1858  -10.9463 H   0  0  0  0  0  0
   -5.0192   26.4645  -11.6039 H   0  0  0  0  0  0
   -5.0315   27.3526  -13.1652 H   0  0  0  0  0  0
   -2.2784   29.0777  -11.3980 H   0  0  0  0  0  0
   -3.2860   29.4008   -9.9465 H   0  0  0  0  0  0
   -2.0819   25.4088   -9.2053 H   0  0  0  0  0  0
   -1.5641   23.8077   -9.8336 H   0  0  0  0  0  0
   -0.3360   25.8856  -11.4408 H   0  0  0  0  0  0
   -1.5182   24.6289  -11.9407 H   0  0  0  0  0  0
   -3.1043   25.7248  -10.9582 H   0  0  0  0  0  0
   -1.7907   27.4388   -9.5170 H   0  0  0  0  0  0
   -3.5068   26.9119   -9.5805 H   0  0  0  0  0  0
   -3.1980   25.6229  -13.0700 H   0  0  0  0  0  0
   -2.5549   27.2906  -13.2489 H   0  0  0  0  0  0
  1  2  1  0  0  0
  1 11  1  0  0  0
  1 19  1  0  0  0
  1 20  1  0  0  0
  2  3  1  0  0  0
  2 21  1  0  0  0
  2 22  1  0  0  0
  3  4  1  0  0  0
  3  5  1  0  0  0
  4 10  1  0  0  0
  4 23  1  0  0  0
  4 24  1  0  0  0
  5  9  1  0  0  0
  5 25  1  0  0  0
  5 26  1  0  0  0
  6  7  1  0  0  0
  6 12  1  0  0  0
  6 27  1  0  0  0
  6 28  1  0  0  0
  7  8  1  0  0  0
  7 29  1  0  0  0
  7 30  1  0  0  0
  8  9  1  0  0  0
  8 10  1  0  0  0
  8 31  1  0  0  0
  9 32  1  0  0  0
  9 33  1  0  0  0
 10 34  1  0  0  0
 10 35  1  0  0  0
 11 13  2  0  0  0
 11 14  1  0  0  0
 11 15  2  0  0  0
 12 16  2  0  0  0
 12 17  2  0  0  0
 12 18  1  0  0  0
M  CHG  3   8   1  14  -1  18  -1
M  END
> <s_m_source_file>
../5cs5_ligand.sdf

> <i_m_source_file_index>
1

> <s_epik_input>
Tz1TKD1PKShbT0hdKVtDSDJdW0NIMl1bTkgrXTFbQ0gyXVtDSDJdW05IK10oW0NIMl1bQ0gyXTEpW0NIMl1bQ0gyXVMoPU8pKD1PKVtPSF0=

> <s_epik_cmdline>
J2VwaWtfYXBwJywgJy1pbWFlJywgJ2xpZ2FuZF9wcm8ubWFlJywgJy1vbWFlJywgJ2xpZ2FuZF9wcmVwLm1hZScsICctbXMnLCAnMScsICctcGgnLCAnNycsICctcGh0JywgJzAuNScsICctbnQn

> <r_epik_Ionization_Penalty>
  0.2024

> <r_epik_Ionization_Penalty_Charging>
  0.2022

> <r_epik_Ionization_Penalty_Neutral>
  0.0002

> <r_epik_State_Penalty>
  0.1921

> <r_epik_Charging_Adjusted_Penalty>
0.394311987863827

> <i_epik_Tot_Q>
-1

> <i_epik_Tot_abs_Q>
3

$$$$
