5csz_ligand
                    3D
 Schrodinger Suite 2020-3.
170172  0  0  1  0            999 V2000
  -32.4180    9.2750   87.3760 N   0  3  0  0  0  0
  -31.0360    8.7040   87.3630 C   0  0  2  0  0  0
  -30.2590    9.0940   86.1060 C   0  0  0  0  0  0
  -29.0660    8.7980   85.9870 O   0  0  0  0  0  0
  -31.0760    7.1680   87.4360 C   0  0  0  0  0  0
  -31.9750    6.6360   88.5400 C   0  0  0  0  0  0
  -31.7700    6.9780   89.7300 O   0  0  0  0  0  0
  -32.8820    5.8440   88.2040 O   0  0  0  0  0  0
  -30.9410    9.7570   85.1770 N   0  0  0  0  0  0
  -30.4930    9.8250   83.7890 C   0  0  2  0  0  0
  -29.8140   11.1230   83.3360 C   0  0  0  0  0  0
  -29.0230   11.1010   82.4030 O   0  0  0  0  0  0
  -31.6580    9.4740   82.8530 C   0  0  0  0  0  0
  -30.1150   12.2450   83.9860 N   0  0  0  0  0  0
  -29.6420   13.5530   83.5180 C   0  0  2  0  0  0
  -29.1480   14.4310   84.6790 C   0  0  0  0  0  0
  -29.6110   14.2790   85.7950 O   0  0  0  0  0  0
  -30.7700   14.2710   82.7520 C   0  0  0  0  0  0
  -30.4870   15.7260   82.3410 C   0  0  0  0  0  0
  -29.3410   15.8920   81.3320 C   0  0  0  0  0  0
  -28.1920   15.4530   81.5840 O   0  0  0  0  0  0
  -29.5860   16.5100   80.2740 O   0  0  0  0  0  0
  -28.2160   15.3340   84.4000 N   0  0  0  0  0  0
  -27.7770   16.3250   85.3860 C   0  0  2  0  0  0
  -28.4760   17.6670   85.2110 C   0  0  0  0  0  0
  -28.7040   18.1230   84.0880 O   0  0  0  0  0  0
  -26.2610   16.5280   85.3210 C   0  0  0  0  0  0
  -25.4820   15.3180   85.7220 C   0  0  0  0  0  0
  -25.1900   15.0870   87.0590 C   0  0  0  0  0  0
  -25.0490   14.4050   84.7670 C   0  0  0  0  0  0
  -24.4610   13.9550   87.4490 C   0  0  0  0  0  0
  -24.3280   13.2720   85.1420 C   0  0  0  0  0  0
  -24.0370   13.0430   86.4810 C   0  0  0  0  0  0
  -28.7980   18.2950   86.3370 N   0  0  0  0  0  0
  -29.4180   19.6140   86.3490 C   0  0  2  0  0  0
  -28.3890   20.6510   85.9330 C   0  0  0  0  0  0
  -27.2740   20.6760   86.4500 O   0  0  0  0  0  0
  -29.9910   19.9050   87.7410 C   0  0  0  0  0  0
  -31.0140   21.0440   87.7900 C   0  0  0  0  0  0
  -31.6540   21.1410   89.1840 C   0  0  0  0  0  0
  -32.5630   22.2880   89.2990 N   0  0  0  0  0  0
  -32.1860   23.5580   89.4280 C   0  0  0  0  0  0
  -30.8960   23.8970   89.4810 N   0  0  0  0  0  0
  -33.1160   24.5040   89.5110 N   0  0  0  0  0  0
  -28.7460   21.5010   84.9700 N   0  0  0  0  0  0
  -27.8090   22.5100   84.4880 C   0  0  2  0  0  0
  -28.5300   23.6580   83.7940 C   0  0  0  0  0  0
  -29.6380   23.4740   83.2810 O   0  0  0  0  0  0
  -26.8050   21.8720   83.5050 C   0  0  0  0  0  0
  -27.4450   21.3450   82.2590 C   0  0  0  0  0  0
  -28.2780   20.2470   82.2590 N   0  0  0  0  0  0
  -27.3990   21.7840   80.9810 C   0  0  0  0  0  0
  -28.7140   20.0260   81.0310 C   0  0  0  0  0  0
  -28.1930   20.9440   80.2350 N   0  0  0  0  0  0
  -27.8870   24.8250   83.7900 N   0  0  0  0  0  0
  -28.2970   25.9650   82.9700 C   0  0  2  0  0  0
  -27.9560   25.6650   81.5150 C   0  0  0  0  0  0
  -26.9250   25.0420   81.2430 O   0  0  0  0  0  0
  -27.5350   27.2300   83.3830 C   0  0  0  0  0  0
  -27.7580   27.6150   84.8330 C   0  0  0  0  0  0
  -28.7820   27.2230   85.4250 O   0  0  0  0  0  0
  -26.8990   28.3310   85.3830 O   0  0  0  0  0  0
  -28.8050   26.1150   80.5880 N   0  0  0  0  0  0
  -28.5510   25.9640   79.1420 C   0  0  2  0  0  0
  -27.1870   26.5000   78.7620 C   0  0  0  0  0  0
  -26.7840   27.5620   79.2300 O   0  0  0  0  0  0
  -29.6040   26.7050   78.3170 C   0  0  0  0  0  0
  -30.8960   26.1990   78.5720 O   0  0  0  0  0  0
  -26.4770   25.7530   77.9220 N   0  0  0  0  0  0
  -25.1700   26.1790   77.4250 C   0  0  0  0  0  0
  -23.9650   25.7530   78.2520 C   0  0  0  0  0  0
  -22.8230   25.9510   77.8340 O   0  0  0  0  0  0
  -24.1980   25.1760   79.4280 N   0  0  0  0  0  0
  -23.0730   24.8160   80.2840 C   0  0  2  0  0  0
  -22.1360   23.8250   79.5720 C   0  0  0  0  0  0
  -22.5860   22.8010   79.0490 O   0  0  0  0  0  0
  -23.5200   24.2540   81.6460 C   0  0  0  0  0  0
  -22.3100   23.9200   82.4840 C   0  0  0  0  0  0
  -21.6960   24.8990   83.2700 C   0  0  0  0  0  0
  -21.7270   22.6420   82.4260 C   0  0  0  0  0  0
  -20.5560   24.6130   84.0040 C   0  0  0  0  0  0
  -20.5810   22.3430   83.1630 C   0  0  0  0  0  0
  -20.0020   23.3320   83.9470 C   0  0  0  0  0  0
  -18.8680   23.0530   84.6730 O   0  0  0  0  0  0
  -20.8450   24.1420   79.5560 N   0  0  0  0  0  0
  -19.8460   23.2790   78.9320 C   0  0  2  0  0  0
  -19.0990   22.3800   79.9440 C   0  0  0  0  0  0
  -18.3650   22.8770   80.8100 O   0  0  0  0  0  0
  -18.8720   24.1240   78.1000 C   0  0  0  0  0  0
  -19.4910   24.6400   76.7880 C   0  0  0  0  0  0
  -18.7920   25.8720   76.2190 C   0  0  0  0  0  0
  -17.6260   26.1390   76.5800 O   0  0  0  0  0  0
  -19.4150   26.5780   75.3980 O   0  0  0  0  0  0
  -19.2220   21.1470   79.9060 O   0  0  0  0  0  0
  -32.3619   10.3723   87.3231 H   0  0  0  0  0  0
  -32.9286    8.9783   88.3041 H   0  0  0  0  0  0
  -32.9801    8.8944   86.5105 H   0  0  0  0  0  0
  -30.5485    9.1386   88.2481 H   0  0  0  0  0  0
  -31.4511    6.7653   86.4836 H   0  0  0  0  0  0
  -30.0626    6.7833   87.6229 H   0  0  0  0  0  0
  -32.4185    6.5951   90.5318 H   0  0  0  0  0  0
  -31.8687   10.2639   85.4810 H   0  0  0  0  0  0
  -29.6920    9.0711   83.7899 H   0  0  0  0  0  0
  -32.1328    8.5416   83.1923 H   0  0  0  0  0  0
  -31.2784    9.3407   81.8292 H   0  0  0  0  0  0
  -32.3975   10.2882   82.8668 H   0  0  0  0  0  0
  -30.7332   12.1761   84.8933 H   0  0  0  0  0  0
  -28.7922   13.3319   82.8555 H   0  0  0  0  0  0
  -30.9844   13.7270   81.8203 H   0  0  0  0  0  0
  -31.6755   14.3009   83.3758 H   0  0  0  0  0  0
  -31.3862   16.1575   81.8771 H   0  0  0  0  0  0
  -30.2164   16.3125   83.2314 H   0  0  0  0  0  0
  -27.3818   15.5798   80.8509 H   0  0  0  0  0  0
  -27.7705   15.3241   83.3943 H   0  0  0  0  0  0
  -28.0745   15.8889   86.3510 H   0  0  0  0  0  0
  -25.9689   16.7823   84.2914 H   0  0  0  0  0  0
  -25.9713   17.3460   85.9969 H   0  0  0  0  0  0
  -25.5316   15.7942   87.8148 H   0  0  0  0  0  0
  -25.2754   14.5766   83.7147 H   0  0  0  0  0  0
  -24.2269   13.7881   88.5004 H   0  0  0  0  0  0
  -23.9922   12.5649   84.3835 H   0  0  0  0  0  0
  -23.4792   12.1538   86.7748 H   0  0  0  0  0  0
  -28.5794   17.7814   87.2848 H   0  0  0  0  0  0
  -30.2373   19.6071   85.6150 H   0  0  0  0  0  0
  -30.4982   19.0071   88.1238 H   0  0  0  0  0  0
  -29.1741   20.1835   88.4230 H   0  0  0  0  0  0
  -30.5133   21.9966   87.5620 H   0  0  0  0  0  0
  -31.8049   20.8587   87.0482 H   0  0  0  0  0  0
  -32.2308   20.2266   89.3871 H   0  0  0  0  0  0
  -30.8653   21.2531   89.9426 H   0  0  0  0  0  0
  -33.6516   22.1309   89.2818 H   0  0  0  0  0  0
  -30.1200   23.1203   89.4130 H   0  0  0  0  0  0
  -30.6090   24.9530   89.5926 H   0  0  0  0  0  0
  -34.1813   24.2333   89.4682 H   0  0  0  0  0  0
  -29.7558   21.4374   84.5385 H   0  0  0  0  0  0
  -27.3131   22.8883   85.3941 H   0  0  0  0  0  0
  -26.0612   22.6234   83.2015 H   0  0  0  0  0  0
  -26.2959   21.0296   83.9961 H   0  0  0  0  0  0
  -26.8781   22.6229   80.4963 H   0  0  0  0  0  0
  -29.3874   19.2246   80.7269 H   0  0  0  0  0  0
  -27.0075   24.9071   84.4456 H   0  0  0  0  0  0
  -29.3783   26.0901   83.1287 H   0  0  0  0  0  0
  -26.4557   27.0697   83.2440 H   0  0  0  0  0  0
  -27.8632   28.0754   82.7605 H   0  0  0  0  0  0
  -27.0245   28.6318   86.4336 H   0  0  0  0  0  0
  -29.7216   26.6136   80.9363 H   0  0  0  0  0  0
  -28.5943   24.8802   78.9591 H   0  0  0  0  0  0
  -29.5870   27.7740   78.5758 H   0  0  0  0  0  0
  -29.3832   26.5835   77.2463 H   0  0  0  0  0  0
  -31.7667   26.6279   78.0544 H   0  0  0  0  0  0
  -26.8998   24.7894   77.6017 H   0  0  0  0  0  0
  -25.0083   25.7663   76.4183 H   0  0  0  0  0  0
  -25.1347   27.2776   77.3810 H   0  0  0  0  0  0
  -25.2273   24.9700   79.7568 H   0  0  0  0  0  0
  -22.5621   25.7759   80.4498 H   0  0  0  0  0  0
  -24.1292   25.0049   82.1704 H   0  0  0  0  0  0
  -24.1161   23.3429   81.4890 H   0  0  0  0  0  0
  -22.1202   25.9024   83.3062 H   0  0  0  0  0  0
  -22.1767   21.8742   81.7964 H   0  0  0  0  0  0
  -20.0944   25.3830   84.6221 H   0  0  0  0  0  0
  -20.1452   21.3447   83.1239 H   0  0  0  0  0  0
  -18.4070   23.8344   85.2950 H   0  0  0  0  0  0
  -20.5374   25.0852   80.0310 H   0  0  0  0  0  0
  -20.4343   22.6198   78.2768 H   0  0  0  0  0  0
  -18.5534   24.9991   78.6855 H   0  0  0  0  0  0
  -17.9922   23.5179   77.8382 H   0  0  0  0  0  0
  -19.4375   23.8519   76.0225 H   0  0  0  0  0  0
  -20.5426   24.9123   76.9609 H   0  0  0  0  0  0
  -17.1142   27.0246   76.1754 H   0  0  0  0  0  0
  -18.6853   20.5181   80.6315 H   0  0  0  0  0  0
  1  2  1  0  0  0
  1 95  1  0  0  0
  1 96  1  0  0  0
  1 97  1  0  0  0
  2  3  1  0  0  0
  2  5  1  0  0  0
  2 98  1  0  0  0
  3  4  2  0  0  0
  3  9  1  0  0  0
  5  6  1  0  0  0
  5 99  1  0  0  0
  5100  1  0  0  0
  6  7  1  0  0  0
  6  8  2  0  0  0
  7101  1  0  0  0
  9 10  1  0  0  0
  9102  1  0  0  0
 10 11  1  0  0  0
 10 13  1  0  0  0
 10103  1  0  0  0
 11 12  2  0  0  0
 11 14  1  0  0  0
 13104  1  0  0  0
 13105  1  0  0  0
 13106  1  0  0  0
 14 15  1  0  0  0
 14107  1  0  0  0
 15 16  1  0  0  0
 15 18  1  0  0  0
 15108  1  0  0  0
 16 17  2  0  0  0
 16 23  1  0  0  0
 18 19  1  0  0  0
 18109  1  0  0  0
 18110  1  0  0  0
 19 20  1  0  0  0
 19111  1  0  0  0
 19112  1  0  0  0
 20 21  1  0  0  0
 20 22  2  0  0  0
 21113  1  0  0  0
 23 24  1  0  0  0
 23114  1  0  0  0
 24 25  1  0  0  0
 24 27  1  0  0  0
 24115  1  0  0  0
 25 26  2  0  0  0
 25 34  1  0  0  0
 27 28  1  0  0  0
 27116  1  0  0  0
 27117  1  0  0  0
 28 29  2  0  0  0
 28 30  1  0  0  0
 29 31  1  0  0  0
 29118  1  0  0  0
 30 32  2  0  0  0
 30119  1  0  0  0
 31 33  2  0  0  0
 31120  1  0  0  0
 32 33  1  0  0  0
 32121  1  0  0  0
 33122  1  0  0  0
 34 35  1  0  0  0
 34123  1  0  0  0
 35 36  1  0  0  0
 35 38  1  0  0  0
 35124  1  0  0  0
 36 37  2  0  0  0
 36 45  1  0  0  0
 38 39  1  0  0  0
 38125  1  0  0  0
 38126  1  0  0  0
 39 40  1  0  0  0
 39127  1  0  0  0
 39128  1  0  0  0
 40 41  1  0  0  0
 40129  1  0  0  0
 40130  1  0  0  0
 41 42  1  0  0  0
 41131  1  0  0  0
 42 43  1  0  0  0
 42 44  2  0  0  0
 43132  1  0  0  0
 43133  1  0  0  0
 44134  1  0  0  0
 45 46  1  0  0  0
 45135  1  0  0  0
 46 47  1  0  0  0
 46 49  1  0  0  0
 46136  1  0  0  0
 47 48  2  0  0  0
 47 55  1  0  0  0
 49 50  1  0  0  0
 49137  1  0  0  0
 49138  1  0  0  0
 50 51  2  0  0  0
 50 52  1  0  0  0
 51 53  1  0  0  0
 52 54  2  0  0  0
 52139  1  0  0  0
 53 54  1  0  0  0
 53140  1  0  0  0
 55 56  1  0  0  0
 55141  1  0  0  0
 56 57  1  0  0  0
 56 59  1  0  0  0
 56142  1  0  0  0
 57 58  2  0  0  0
 57 63  1  0  0  0
 59 60  1  0  0  0
 59143  1  0  0  0
 59144  1  0  0  0
 60 61  2  0  0  0
 60 62  1  0  0  0
 62145  1  0  0  0
 63 64  1  0  0  0
 63146  1  0  0  0
 64 65  1  0  0  0
 64 67  1  0  0  0
 64147  1  0  0  0
 65 66  2  0  0  0
 65 69  1  0  0  0
 67 68  1  0  0  0
 67148  1  0  0  0
 67149  1  0  0  0
 68150  1  0  0  0
 69 70  1  0  0  0
 69151  1  0  0  0
 70 71  1  0  0  0
 70152  1  0  0  0
 70153  1  0  0  0
 71 72  2  0  0  0
 71 73  1  0  0  0
 73 74  1  0  0  0
 73154  1  0  0  0
 74 75  1  0  0  0
 74 77  1  0  0  0
 74155  1  0  0  0
 75 76  2  0  0  0
 75 85  1  0  0  0
 77 78  1  0  0  0
 77156  1  0  0  0
 77157  1  0  0  0
 78 79  2  0  0  0
 78 80  1  0  0  0
 79 81  1  0  0  0
 79158  1  0  0  0
 80 82  2  0  0  0
 80159  1  0  0  0
 81 83  2  0  0  0
 81160  1  0  0  0
 82 83  1  0  0  0
 82161  1  0  0  0
 83 84  1  0  0  0
 84162  1  0  0  0
 85 86  1  0  0  0
 85163  1  0  0  0
 86 87  1  0  0  0
 86 89  1  0  0  0
 86164  1  0  0  0
 87 88  2  0  0  0
 87 94  1  0  0  0
 89 90  1  0  0  0
 89165  1  0  0  0
 89166  1  0  0  0
 90 91  1  0  0  0
 90167  1  0  0  0
 90168  1  0  0  0
 91 92  1  0  0  0
 91 93  2  0  0  0
 92169  1  0  0  0
 94170  1  0  0  0
M  CHG  1   1   1
M  END
> <s_m_source_file>
../5csz_ligand.sdf

> <i_m_source_file_index>
1

> <s_epik_input>
W09IXUMoPU8pW0NIMl1bQ0BIXShbTkgzK10pQyg9TylbTkhdW0NAQEhdKFtDSDNdKUMoPU8pW05IXVtDQEBIXShbQ0gyXVtDSDJdQyg9TylbT0hdKUMoPU8pW05IXVtDQEBIXShbQ0gyXWMxW2NIXVtjSF1bY0hdW2NIXVtjSF0xKUMoPU8pW05IXVtDQEBIXShbQ0gyXVtDSDJdW0NIMl1bTkhdL0MoW05IMl0pPU5cW0hdKUMoPU8pW05IXVtDQEBIXShbQ0gyXUMyPU5bQ0gyXU49W0NIXTIpQyg9TylbTkhdW0NAQEhdKFtDSDJdQyg9TylbT0hdKUMoPU8pW05IXVtDQEBIXShbQ0gyXVtPSF0pQyg9TylbTkhdW0NIMl1DKD1PKVtOSF1bQ0BIXShDKD1PKVtOSF1bQ0BIXShDKD1PKVtPSF0pW0NIMl1bQ0gyXUMoPU8pW09IXSlbQ0gyXWMzW2NIXVtjSF1jKFtPSF0pW2NIXVtjSF0z

> <s_epik_cmdline>
J2VwaWtfYXBwJywgJy1pbWFlJywgJ2xpZ2FuZF9wcm8ubWFlJywgJy1vbWFlJywgJ2xpZ2FuZF9wcmVwLm1hZScsICctbXMnLCAnMScsICctcGgnLCAnNycsICctcGh0JywgJzAuNScsICctbnQn

> <s_epik_pKa_notes>
Molecule size exceeds maximum supported for generating protonation states

> <s_epik_Chemistry_Notes>
This compound has an imine and may undergo hydrolysis.

$$$$
