5ct1_ligand
                    3D
 Schrodinger Suite 2020-3.
 30 30  0  0  1  0            999 V2000
   -0.6290   24.6990  -11.4960 C   0  0  0  0  0  0
   -1.6190   25.8010  -11.8960 C   0  0  0  0  0  0
   -2.4670   26.4220  -10.7720 C   0  0  0  0  0  0
   -1.7210   26.4950   -9.4300 C   0  0  0  0  0  0
   -2.8570   27.7720  -11.1650 N   0  3  0  0  0  0
   -4.2410   28.2060  -11.2820 C   0  0  0  0  0  0
   -4.3480   29.7350  -11.3650 C   0  0  0  0  0  0
   -4.9380   30.3090  -12.8250 S   0  0  0  0  0  0
   -3.9110   31.0910  -13.5590 O   0  0  0  0  0  0
   -5.3510   29.1610  -13.6720 O   0  5  0  0  0  0
   -6.0990   31.2020  -12.5810 O   0  0  0  0  0  0
   -0.8040   25.3100   -9.0890 C   0  0  0  0  0  0
    0.1640   25.0080  -10.2260 C   0  0  0  0  0  0
   -1.1763   23.7616  -11.3174 H   0  0  0  0  0  0
    0.1000   24.5493  -12.3060 H   0  0  0  0  0  0
   -1.0704   26.6398  -12.3494 H   0  0  0  0  0  0
   -2.3408   25.3995  -12.6225 H   0  0  0  0  0  0
   -3.3759   25.8166  -10.6399 H   0  0  0  0  0  0
   -1.0768   27.3866   -9.4166 H   0  0  0  0  0  0
   -2.4497   26.5568   -8.6083 H   0  0  0  0  0  0
   -2.4489   28.4960  -10.4443 H   0  0  0  0  0  0
   -2.4617   27.9905  -12.1680 H   0  0  0  0  0  0
   -4.6841   27.7768  -12.1927 H   0  0  0  0  0  0
   -4.8077   27.8653  -10.4029 H   0  0  0  0  0  0
   -5.0269   30.0982  -10.5794 H   0  0  0  0  0  0
   -3.3522   30.1805  -11.2238 H   0  0  0  0  0  0
   -0.2195   25.5463   -8.1876 H   0  0  0  0  0  0
   -1.4154   24.4143   -8.9051 H   0  0  0  0  0  0
    0.7843   24.1392   -9.9606 H   0  0  0  0  0  0
    0.8106   25.8806  -10.4007 H   0  0  0  0  0  0
  1  2  1  0  0  0
  1 13  1  0  0  0
  1 14  1  0  0  0
  1 15  1  0  0  0
  2  3  1  0  0  0
  2 16  1  0  0  0
  2 17  1  0  0  0
  3  4  1  0  0  0
  3  5  1  0  0  0
  3 18  1  0  0  0
  4 12  1  0  0  0
  4 19  1  0  0  0
  4 20  1  0  0  0
  5  6  1  0  0  0
  5 21  1  0  0  0
  5 22  1  0  0  0
  6  7  1  0  0  0
  6 23  1  0  0  0
  6 24  1  0  0  0
  7  8  1  0  0  0
  7 25  1  0  0  0
  7 26  1  0  0  0
  8  9  2  0  0  0
  8 10  1  0  0  0
  8 11  2  0  0  0
 12 13  1  0  0  0
 12 27  1  0  0  0
 12 28  1  0  0  0
 13 29  1  0  0  0
 13 30  1  0  0  0
M  CHG  2   5   1  10  -1
M  END
> <s_m_source_file>
../5ct1_ligand.sdf

> <i_m_source_file_index>
1

> <s_epik_input>
W0NIMl0xW0NIMl1bQ0gyXVtDSDJdW0NIMl1bQ0hdMVtOSDIrXVtDSDJdW0NIMl1TKD1PKSg9TylbT0hd

> <s_epik_cmdline>
J2VwaWtfYXBwJywgJy1pbWFlJywgJ2xpZ2FuZF9wcm8ubWFlJywgJy1vbWFlJywgJ2xpZ2FuZF9wcmVwLm1hZScsICctbXMnLCAnMScsICctcGgnLCAnNycsICctcGh0JywgJzAuNScsICctbnQn

> <r_lp_tautomer_probability>
1

> <r_epik_Ionization_Penalty>
  0.0005

> <r_epik_Ionization_Penalty_Charging>
  0.0005

> <r_epik_Ionization_Penalty_Neutral>
  0.0000

> <r_epik_State_Penalty>
 -0.0000

> <r_epik_Charging_Adjusted_Penalty>
0.000454980191812922

> <i_epik_Tot_Q>
0

> <i_epik_Tot_abs_Q>
2

$$$$
