5ct7_ligand
                    3D
 Schrodinger Suite 2020-3.
 52 56  0  0  1  0            999 V2000
  -19.2800    9.4370   -8.9350 C   0  0  0  0  0  0
  -19.9070    8.7380   -9.9710 C   0  0  0  0  0  0
  -19.6740    9.0250  -11.3120 C   0  0  0  0  0  0
  -17.1400   11.6350  -10.9270 O   0  0  0  0  0  0
  -16.3230   13.7740  -11.4660 C   0  0  0  0  0  0
  -15.4020   16.0350  -11.9220 C   0  0  0  0  0  0
  -20.6080    8.0320   -7.9920 C   0  0  0  0  0  0
  -21.7050    6.9350  -10.0000 C   0  0  0  0  0  0
  -21.7260    7.5650   -5.8150 C   0  0  0  0  0  0
  -22.2760    6.5510   -5.0420 C   0  0  0  0  0  0
  -22.7360    6.8210   -3.7650 C   0  0  0  0  0  0
  -22.6580    8.0990   -3.2320 C   0  0  0  0  0  0
  -22.1040    9.1090   -4.0100 C   0  0  0  0  0  0
  -21.6440    8.8510   -5.2890 C   0  0  0  0  0  0
  -14.3300   17.9190  -12.3420 C   0  0  0  0  0  0
  -13.4770   16.8650  -12.2710 C   0  0  0  0  0  0
  -23.2330    8.3900   -1.8890 C   0  0  0  0  0  0
  -12.0120   16.8550  -12.4500 C   0  0  0  0  0  0
  -18.7850   10.0440  -11.6090 C   0  0  0  0  0  0
  -18.1340   10.7290  -10.5810 C   0  0  0  0  0  0
  -18.3670   10.4490   -9.2360 C   0  0  0  0  0  0
  -17.4080   12.9900  -11.1060 C   0  0  0  0  0  0
  -18.6520   13.5720  -10.9220 C   0  0  0  0  0  0
  -18.7540   14.9360  -11.1210 C   0  0  0  0  0  0
  -17.7240   15.7250  -11.4740 N   0  0  0  0  0  0
  -16.5260   15.1380  -11.6280 C   0  0  0  0  0  0
  -19.7440    8.9840   -7.6950 N   0  0  0  0  0  0
  -20.7620    7.8400   -9.3450 N   0  0  0  0  0  0
  -21.2900    7.2440   -7.1190 N   0  0  0  0  0  0
  -15.5760   17.4240  -12.1290 N   0  0  0  0  0  0
  -14.1250   15.6860  -12.0080 N   0  0  0  0  0  0
  -23.0820    9.6490   -1.4750 F   0  0  0  0  0  0
  -24.5100    8.1440   -1.8530 F   0  0  0  0  0  0
  -22.7190    7.6590   -0.9420 F   0  0  0  0  0  0
  -11.6600   16.3490  -13.6150 F   0  0  0  0  0  0
  -11.4830   18.0670  -12.3550 F   0  0  0  0  0  0
  -11.4130   16.1030  -11.5410 F   0  0  0  0  0  0
  -20.1747    8.4662  -12.1027 H   0  0  0  0  0  0
  -15.3382   13.3322  -11.6176 H   0  0  0  0  0  0
  -21.5856    7.0080  -11.0911 H   0  0  0  0  0  0
  -22.7327    7.2139   -9.7241 H   0  0  0  0  0  0
  -21.5062    5.9023   -9.6776 H   0  0  0  0  0  0
  -22.3456    5.5395   -5.4422 H   0  0  0  0  0  0
  -23.1664    6.0165   -3.1687 H   0  0  0  0  0  0
  -22.0309   10.1189   -3.6065 H   0  0  0  0  0  0
  -21.2165    9.6565   -5.8860 H   0  0  0  0  0  0
  -14.0660   18.9592  -12.5327 H   0  0  0  0  0  0
  -18.5928   10.3122  -12.6479 H   0  0  0  0  0  0
  -17.8548   11.0003   -8.4475 H   0  0  0  0  0  0
  -19.5175   12.9766  -10.6313 H   0  0  0  0  0  0
  -19.7302   15.4010  -10.9832 H   0  0  0  0  0  0
  -21.5663    6.2182   -7.4043 H   0  0  0  0  0  0
  1  2  2  0  0  0
  1 21  1  0  0  0
  1 27  1  0  0  0
  2  3  1  0  0  0
  2 28  1  0  0  0
  3 19  2  0  0  0
  3 38  1  0  0  0
  4 20  1  0  0  0
  4 22  1  0  0  0
  5 22  2  0  0  0
  5 26  1  0  0  0
  5 39  1  0  0  0
  6 26  1  0  0  0
  6 30  2  0  0  0
  6 31  1  0  0  0
  7 27  2  0  0  0
  7 28  1  0  0  0
  7 29  1  0  0  0
  8 28  1  0  0  0
  8 40  1  0  0  0
  8 41  1  0  0  0
  8 42  1  0  0  0
  9 10  2  0  0  0
  9 14  1  0  0  0
  9 29  1  0  0  0
 10 11  1  0  0  0
 10 43  1  0  0  0
 11 12  2  0  0  0
 11 44  1  0  0  0
 12 13  1  0  0  0
 12 17  1  0  0  0
 13 14  2  0  0  0
 13 45  1  0  0  0
 14 46  1  0  0  0
 15 16  1  0  0  0
 15 30  1  0  0  0
 15 47  1  0  0  0
 16 18  1  0  0  0
 16 31  2  0  0  0
 17 32  1  0  0  0
 17 33  1  0  0  0
 17 34  1  0  0  0
 18 35  1  0  0  0
 18 36  1  0  0  0
 18 37  1  0  0  0
 19 20  1  0  0  0
 19 48  1  0  0  0
 20 21  2  0  0  0
 21 49  1  0  0  0
 22 23  1  0  0  0
 23 24  2  0  0  0
 23 50  1  0  0  0
 24 25  1  0  0  0
 24 51  1  0  0  0
 25 26  2  0  0  0
 29 52  1  0  0  0
M  END
> <s_m_source_file>
../5ct7_ligand.sdf

> <i_m_source_file_index>
1

> <s_epik_input>
W2NIXTFbY0hdYyhDKEYpKEYpRilbY0hdW2NIXWMxW05IXWMobjIpbihbQ0gzXSljKGMyMylbY0hdW2NIXWMoW2NIXTMpT2M0W2NIXWMobltjSF1bY0hdNClDNT1OW0NIMl1DKD1ONSlDKEYpKEYpRg==

> <s_epik_cmdline>
J2VwaWtfYXBwJywgJy1pbWFlJywgJ2xpZ2FuZF9wcm8ubWFlJywgJy1vbWFlJywgJ2xpZ2FuZF9wcmVwLm1hZScsICctbXMnLCAnMScsICctcGgnLCAnNycsICctcGh0JywgJzAuNScsICctbnQn

> <r_epik_Ionization_Penalty>
  0.1226

> <r_epik_Ionization_Penalty_Charging>
  0.0000

> <r_epik_Ionization_Penalty_Neutral>
  0.1226

> <r_epik_State_Penalty>
  0.1081

> <r_epik_Charging_Adjusted_Penalty>
0.108124740861737

> <i_epik_Tot_Q>
0

> <i_epik_Tot_abs_Q>
0

> <s_epik_Chemistry_Notes>
This compound has an imine and may undergo hydrolysis.

$$$$
