5ctb_ligand
                    3D
 Schrodinger Suite 2020-3.
 54 58  0  0  1  0            999 V2000
    6.0360   29.9580   22.9370 N   0  0  0  0  0  0
    5.0410   30.5760   25.1100 C   0  0  0  0  0  0
    4.5960   34.2700   27.7890 N   0  0  0  0  0  0
    3.8930   32.2870   26.9140 C   0  0  0  0  0  0
    5.1640   32.5860   26.3560 C   0  0  0  0  0  0
    5.6500   29.5640   24.2150 C   0  0  0  0  0  0
    4.8030   31.0110   21.0600 C   0  0  0  0  0  0
    7.8210   33.4560   17.7070 C   0  0  0  0  0  0
    7.7960   32.4390   18.6500 C   0  0  0  0  0  0
    5.5580   33.8380   26.9460 C   0  0  0  0  0  0
    5.5850   32.8920   16.9960 C   0  0  0  0  0  0
    4.3750   31.0000   18.0490 C   0  0  0  0  0  0
    6.7230   33.6780   16.8680 C   0  0  0  0  0  0
    1.9080   30.8150   27.2660 C   0  0  0  0  0  0
    3.1950   31.1110   26.5960 C   0  0  3  0  0  0
    3.7880   30.2650   25.6880 C   0  0  0  0  0  0
    5.7500   31.7080   25.4450 C   0  0  0  0  0  0
    3.5950   33.3380   27.7740 N   0  0  0  0  0  0
    5.8600   28.4210   24.6140 O   0  0  0  0  0  0
    6.7370   29.0350   22.0290 C   0  0  0  0  0  0
    5.9020   28.7610   20.7760 C   0  0  0  0  0  0
    5.5020   30.0690   20.0770 C   0  0  0  0  0  0
    5.6540   31.2320   22.3180 C   0  0  0  0  0  0
    4.5940   29.7670   18.8820 C   0  0  0  0  0  0
    3.3230   31.2200   17.4770 O   0  0  0  0  0  0
    5.5430   31.8700   17.9390 C   0  0  0  0  0  0
    6.6510   31.6480   18.7550 C   0  0  0  0  0  0
    6.7290   30.6400   19.6640 O   0  0  0  0  0  0
    9.0240   34.3190   17.5970 C   0  0  0  0  0  0
    6.7780   34.7440   15.8330 C   0  0  0  0  0  0
    4.6321   31.9842   20.5767 H   0  0  0  0  0  0
    3.8382   30.5767   21.3610 H   0  0  0  0  0  0
    8.6549   32.2609   19.2971 H   0  0  0  0  0  0
    6.4720   34.4331   26.8032 H   0  0  0  0  0  0
    4.7223   33.0764   16.3558 H   0  0  0  0  0  0
    1.6480   31.6424   27.9426 H   0  0  0  0  0  0
    2.0013   29.8840   27.8443 H   0  0  0  0  0  0
    1.1187   30.6987   26.5088 H   0  0  0  0  0  0
    3.2715   29.3335   25.4131 H   0  0  0  0  0  0
    6.7411   31.9328   25.0241 H   0  0  0  0  0  0
    7.6963   29.4786   21.7242 H   0  0  0  0  0  0
    6.9216   28.0817   22.5459 H   0  0  0  0  0  0
    6.4872   28.1518   20.0714 H   0  0  0  0  0  0
    4.9866   28.2193   21.0566 H   0  0  0  0  0  0
    5.0691   31.8271   23.0348 H   0  0  0  0  0  0
    6.5597   31.7875   22.0333 H   0  0  0  0  0  0
    3.6267   29.4010   19.2566 H   0  0  0  0  0  0
    5.0673   28.9879   18.2664 H   0  0  0  0  0  0
    9.7760   33.9951   18.3315 H   0  0  0  0  0  0
    8.7446   35.3644   17.7949 H   0  0  0  0  0  0
    9.4426   34.2369   16.5831 H   0  0  0  0  0  0
    7.7507   35.2551   15.8844 H   0  0  0  0  0  0
    5.9719   35.4708   16.0120 H   0  0  0  0  0  0
    6.6521   34.2947   14.8369 H   0  0  0  0  0  0
  1  6  1  0  0  0
  1 20  1  0  0  0
  1 23  1  0  0  0
  2  6  1  0  0  0
  2 16  2  0  0  0
  2 17  1  0  0  0
  3 10  2  0  0  0
  3 18  1  0  0  0
  4  5  1  0  0  0
  4 15  1  0  0  0
  4 18  2  0  0  0
  5 10  1  0  0  0
  5 17  2  0  0  0
  6 19  2  0  0  0
  7 22  1  0  0  0
  7 23  1  0  0  0
  7 31  1  0  0  0
  7 32  1  0  0  0
  8  9  2  0  0  0
  8 13  1  0  0  0
  8 29  1  0  0  0
  9 27  1  0  0  0
  9 33  1  0  0  0
 10 34  1  0  0  0
 11 13  2  0  0  0
 11 26  1  0  0  0
 11 35  1  0  0  0
 12 24  1  0  0  0
 12 25  2  0  0  0
 12 26  1  0  0  0
 13 30  1  0  0  0
 14 15  1  0  0  0
 14 36  1  0  0  0
 14 37  1  0  0  0
 14 38  1  0  0  0
 15 16  1  0  0  0
 16 39  1  0  0  0
 17 40  1  0  0  0
 20 21  1  0  0  0
 20 41  1  0  0  0
 20 42  1  0  0  0
 21 22  1  0  0  0
 21 43  1  0  0  0
 21 44  1  0  0  0
 22 24  1  0  0  0
 22 28  1  0  0  0
 23 45  1  0  0  0
 23 46  1  0  0  0
 24 47  1  0  0  0
 24 48  1  0  0  0
 26 27  2  0  0  0
 27 28  1  0  0  0
 29 49  1  0  0  0
 29 50  1  0  0  0
 29 51  1  0  0  0
 30 52  1  0  0  0
 30 53  1  0  0  0
 30 54  1  0  0  0
M  END
> <s_m_source_file>
../5ctb_ligand.sdf

> <i_m_source_file_index>
1

> <s_epik_input>
TjFOPVtDSF1DKEM9MTIpPVtDSF1DKD1bQ0hdW0NIXTJbQ0gzXSlDKD1PKU4oW0NIMl1bQ0gyXTMpW0NIMl1bQ0gyXUMzNFtDSDJdQyg9TyljNWMoTzQpW2NIXWMoW0NIM10pYyhbY0hdNSlbQ0gzXQ==

> <s_epik_cmdline>
J2VwaWtfYXBwJywgJy1pbWFlJywgJ2xpZ2FuZF9wcm8ubWFlJywgJy1vbWFlJywgJ2xpZ2FuZF9wcmVwLm1hZScsICctbXMnLCAnMScsICctcGgnLCAnNycsICctcGh0JywgJzAuNScsICctbnQn

> <r_lp_tautomer_probability>
1

> <r_epik_Ionization_Penalty>
  0.0000

> <r_epik_Ionization_Penalty_Charging>
  0.0000

> <r_epik_Ionization_Penalty_Neutral>
  0.0000

> <r_epik_State_Penalty>
 -0.0000

> <r_epik_Charging_Adjusted_Penalty>
0

> <i_epik_Tot_Q>
0

> <i_epik_Tot_abs_Q>
0

> <s_epik_Chemistry_Notes>
This compound has an imine and may undergo hydrolysis.

$$$$
