5ctc_ligand
                    3D
 Schrodinger Suite 2020-3.
 55 58  0  0  1  0            999 V2000
    5.9570   29.8650   22.9410 N   0  0  0  0  0  0
    5.0720   30.3960   25.1810 C   0  0  0  0  0  0
    2.0270   31.9640   28.2290 N   0  0  0  0  0  0
    3.9540   32.0840   27.0240 C   0  0  0  0  0  0
    3.2680   30.9080   26.6280 C   0  0  0  0  0  0
    5.7170   29.4450   24.2440 C   0  0  0  0  0  0
    5.8530   28.9190   20.6550 C   0  0  0  0  0  0
    8.2600   34.6880   16.9350 C   0  0  0  0  0  0
    6.8870   33.7030   15.0800 C   0  0  0  0  0  0
    2.0660   30.8850   27.4180 C   0  0  0  0  0  0
    6.8950   34.0920   16.5560 C   0  0  0  0  0  0
    4.7840   30.2970   18.7470 C   0  0  0  0  0  0
    5.7730   35.0770   16.8790 C   0  0  0  0  0  0
    5.8640   33.6700   26.9740 C   0  0  0  0  0  0
    5.2120   32.4270   26.5060 C   0  0  3  0  0  0
    5.7620   31.5610   25.5900 C   0  0  0  0  0  0
    3.8400   30.0500   25.6890 C   0  0  0  0  0  0
    3.1610   32.6930   27.9890 N   0  0  0  0  0  0
    6.0180   28.3080   24.6110 O   0  0  0  0  0  0
    5.6210   31.2060   22.4560 C   0  0  0  0  0  0
    4.8130   31.1300   21.1580 C   0  0  0  0  0  0
    5.5300   30.2960   20.1170 C   0  0  0  0  0  0
    6.6540   29.0180   21.9580 C   0  0  0  0  0  0
    6.7250   31.0170   19.4280 C   0  0  0  0  0  0
    5.9750   30.9650   18.1240 N   0  0  0  0  0  0
    5.7520   32.1290   17.3560 C   0  0  0  0  0  0
    4.7570   32.3250   16.6710 O   0  0  0  0  0  0
    6.8260   32.9530   17.3990 O   0  0  0  0  0  0
    4.9181   28.3745   20.8539 H   0  0  0  0  0  0
    6.4487   28.3661   19.9137 H   0  0  0  0  0  0
    8.4413   35.5959   16.3410 H   0  0  0  0  0  0
    9.0512   33.9517   16.7302 H   0  0  0  0  0  0
    8.2644   34.9429   18.0050 H   0  0  0  0  0  0
    6.9415   34.6109   14.4613 H   0  0  0  0  0  0
    5.9600   33.1574   14.8497 H   0  0  0  0  0  0
    7.7537   33.0604   14.8655 H   0  0  0  0  0  0
    1.2451   30.1530   27.4366 H   0  0  0  0  0  0
    4.5516   29.2621   18.4553 H   0  0  0  0  0  0
    3.8499   30.8707   18.8385 H   0  0  0  0  0  0
    5.8482   35.9495   16.2134 H   0  0  0  0  0  0
    5.8629   35.4050   17.9251 H   0  0  0  0  0  0
    4.8000   34.5857   16.7311 H   0  0  0  0  0  0
    5.2119   34.1743   27.7023 H   0  0  0  0  0  0
    6.0406   34.3365   26.1169 H   0  0  0  0  0  0
    6.8242   33.4233   27.4507 H   0  0  0  0  0  0
    6.7551   31.7865   25.1743 H   0  0  0  0  0  0
    3.3079   29.1376   25.3817 H   0  0  0  0  0  0
    5.0227   31.7312   23.2151 H   0  0  0  0  0  0
    6.5463   31.7692   22.2644 H   0  0  0  0  0  0
    3.8338   30.6721   21.3619 H   0  0  0  0  0  0
    4.6673   32.1438   20.7569 H   0  0  0  0  0  0
    7.6401   29.4512   21.7346 H   0  0  0  0  0  0
    6.7829   28.0068   22.3713 H   0  0  0  0  0  0
    6.8847   31.9967   19.9019 H   0  0  0  0  0  0
    7.6332   30.4056   19.5349 H   0  0  0  0  0  0
  1  6  1  0  0  0
  1 20  1  0  0  0
  1 23  1  0  0  0
  2  6  1  0  0  0
  2 16  2  0  0  0
  2 17  1  0  0  0
  3 10  2  0  0  0
  3 18  1  0  0  0
  4  5  1  0  0  0
  4 15  1  0  0  0
  4 18  2  0  0  0
  5 10  1  0  0  0
  5 17  2  0  0  0
  6 19  2  0  0  0
  7 22  1  0  0  0
  7 23  1  0  0  0
  7 29  1  0  0  0
  7 30  1  0  0  0
  8 11  1  0  0  0
  8 31  1  0  0  0
  8 32  1  0  0  0
  8 33  1  0  0  0
  9 11  1  0  0  0
  9 34  1  0  0  0
  9 35  1  0  0  0
  9 36  1  0  0  0
 10 37  1  0  0  0
 11 13  1  0  0  0
 11 28  1  0  0  0
 12 22  1  0  0  0
 12 25  1  0  0  0
 12 38  1  0  0  0
 12 39  1  0  0  0
 13 40  1  0  0  0
 13 41  1  0  0  0
 13 42  1  0  0  0
 14 15  1  0  0  0
 14 43  1  0  0  0
 14 44  1  0  0  0
 14 45  1  0  0  0
 15 16  1  0  0  0
 16 46  1  0  0  0
 17 47  1  0  0  0
 20 21  1  0  0  0
 20 48  1  0  0  0
 20 49  1  0  0  0
 21 22  1  0  0  0
 21 50  1  0  0  0
 21 51  1  0  0  0
 22 24  1  0  0  0
 23 52  1  0  0  0
 23 53  1  0  0  0
 24 25  1  0  0  0
 24 54  1  0  0  0
 24 55  1  0  0  0
 25 26  1  0  0  0
 26 27  2  0  0  0
 26 28  1  0  0  0
M  END
> <s_m_source_file>
../5ctc_ligand.sdf

> <i_m_source_file_index>
1

> <s_epik_input>
TjFOPVtDSF1DKEM9MTIpPVtDSF1DKD1bQ0hdW0NIXTJbQ0gzXSlDKD1PKU4oW0NIMl1bQ0gyXTMpW0NIMl1bQ0gyXUMzNFtDSDJdTihbQ0gyXTQpQyg9TylPQyhbQ0gzXSkoW0NIM10pW0NIM10=

> <s_epik_cmdline>
J2VwaWtfYXBwJywgJy1pbWFlJywgJ2xpZ2FuZF9wcm8ubWFlJywgJy1vbWFlJywgJ2xpZ2FuZF9wcmVwLm1hZScsICctbXMnLCAnMScsICctcGgnLCAnNycsICctcGh0JywgJzAuNScsICctbnQn

> <r_lp_tautomer_probability>
1

> <r_epik_Ionization_Penalty>
  0.0000

> <r_epik_Ionization_Penalty_Charging>
  0.0000

> <r_epik_Ionization_Penalty_Neutral>
  0.0000

> <r_epik_State_Penalty>
 -0.0000

> <r_epik_Charging_Adjusted_Penalty>
0

> <i_epik_Tot_Q>
0

> <i_epik_Tot_abs_Q>
0

> <s_epik_Chemistry_Notes>
This compound has an ester and may undergo hydrolysis at high or low pH. This compound has an imine and may undergo hydrolysis.

$$$$
