5cte_ligand
                    3D
 Schrodinger Suite 2020-3.
 64 67  0  0  1  0            999 V2000
    8.7480   -9.6160  -17.3960 N   0  0  0  0  0  0
    6.7980   -9.9940  -15.9480 C   0  0  0  0  0  0
    2.4450   -8.5720  -15.7040 N   0  0  0  0  0  0
    4.1000  -10.1280  -15.5140 C   0  0  0  0  0  0
    4.6960   -8.9030  -15.9120 C   0  0  0  0  0  0
    8.2690   -9.9720  -16.1350 C   0  0  0  0  0  0
   10.7000   -9.9660  -18.8680 C   0  0  0  0  0  0
    8.6100   -9.8910  -25.8090 C   0  0  0  0  0  0
    8.2370   -8.7000  -26.7110 C   0  0  0  0  0  0
    3.6090   -7.9650  -16.0160 C   0  0  0  0  0  0
   11.8210  -10.7080  -21.4130 C   0  0  0  0  0  0
    9.6400   -8.2690  -22.0930 C   0  0  0  0  0  0
    9.4230  -10.2560  -23.6380 C   0  0  0  0  0  0
    4.1780  -12.5250  -14.8280 C   0  0  0  0  0  0
    4.8520  -11.2960  -15.3050 C   0  0  3  0  0  0
    6.2070  -11.2090  -15.5320 C   0  0  0  0  0  0
    6.0740   -8.8350  -16.1190 C   0  0  0  0  0  0
    2.7360   -9.8740  -15.4010 N   0  0  0  0  0  0
    9.0340  -10.2570  -15.2180 O   0  0  0  0  0  0
    7.8710   -9.3280  -18.5360 C   0  0  0  0  0  0
    8.3960  -10.0050  -19.8000 C   0  0  0  0  0  0
    9.8580   -9.6650  -20.0980 C   0  0  0  0  0  0
   10.1580   -9.2690  -17.6190 C   0  0  0  0  0  0
    9.9940   -8.2180  -20.5950 C   0  0  0  0  0  0
    9.8650   -9.6740  -22.4690 N   0  0  0  0  0  0
   10.3080  -10.5040  -21.3280 C   0  0  1  0  0  0
    9.3840  -11.4650  -23.8600 O   0  0  0  0  0  0
    9.0460   -9.3410  -24.5780 O   0  0  0  0  0  0
    9.4510   -7.8120  -26.9590 C   0  0  0  0  0  0
    7.7440   -9.2860  -28.0350 C   0  0  0  0  0  0
    7.1230   -7.8760  -26.0770 C   0  0  0  0  0  0
   10.7035  -11.0502  -18.6824 H   0  0  0  0  0  0
   11.7305   -9.6194  -19.0352 H   0  0  0  0  0  0
    7.7274  -10.5311  -25.6633 H   0  0  0  0  0  0
    9.4117  -10.4746  -26.2851 H   0  0  0  0  0  0
    3.6167   -6.9014  -16.2965 H   0  0  0  0  0  0
   12.1559  -11.3250  -20.5662 H   0  0  0  0  0  0
   12.3253   -9.7311  -21.3769 H   0  0  0  0  0  0
   12.0702  -11.2146  -22.3571 H   0  0  0  0  0  0
    8.5915   -7.9670  -22.2325 H   0  0  0  0  0  0
   10.2962   -7.5827  -22.6484 H   0  0  0  0  0  0
    3.0992  -12.3357  -14.7267 H   0  0  0  0  0  0
    4.5927  -12.8151  -13.8514 H   0  0  0  0  0  0
    4.3414  -13.3372  -15.5516 H   0  0  0  0  0  0
    6.8316  -12.1025  -15.3852 H   0  0  0  0  0  0
    6.5405   -7.8814  -16.4070 H   0  0  0  0  0  0
    6.8590   -9.7033  -18.3240 H   0  0  0  0  0  0
    7.8316   -8.2415  -18.7030 H   0  0  0  0  0  0
    8.3233  -11.0969  -19.6883 H   0  0  0  0  0  0
    7.7958   -9.6841  -20.6642 H   0  0  0  0  0  0
   10.2512   -8.1811  -17.7524 H   0  0  0  0  0  0
   10.7550   -9.5844  -16.7506 H   0  0  0  0  0  0
   11.0214   -7.8442  -20.4736 H   0  0  0  0  0  0
    9.2954   -7.5454  -20.0758 H   0  0  0  0  0  0
    9.8793  -11.5170  -21.3308 H   0  0  0  0  0  0
   10.2541   -8.4083  -27.4166 H   0  0  0  0  0  0
    9.8023   -7.3959  -26.0032 H   0  0  0  0  0  0
    9.1725   -6.9910  -27.6361 H   0  0  0  0  0  0
    8.5471   -9.8812  -28.4941 H   0  0  0  0  0  0
    7.4591   -8.4689  -28.7141 H   0  0  0  0  0  0
    6.8713   -9.9293  -27.8489 H   0  0  0  0  0  0
    7.4759   -7.4537  -25.1245 H   0  0  0  0  0  0
    6.2506   -8.5199  -25.8918 H   0  0  0  0  0  0
    6.8384   -7.0596  -26.7570 H   0  0  0  0  0  0
  1  6  1  0  0  0
  1 20  1  0  0  0
  1 23  1  0  0  0
  2  6  1  0  0  0
  2 16  2  0  0  0
  2 17  1  0  0  0
  3 10  2  0  0  0
  3 18  1  0  0  0
  4  5  1  0  0  0
  4 15  1  0  0  0
  4 18  2  0  0  0
  5 10  1  0  0  0
  5 17  2  0  0  0
  6 19  2  0  0  0
  7 22  1  0  0  0
  7 23  1  0  0  0
  7 32  1  0  0  0
  7 33  1  0  0  0
  8  9  1  0  0  0
  8 28  1  0  0  0
  8 34  1  0  0  0
  8 35  1  0  0  0
  9 29  1  0  0  0
  9 30  1  0  0  0
  9 31  1  0  0  0
 10 36  1  0  0  0
 11 26  1  0  0  0
 11 37  1  0  0  0
 11 38  1  0  0  0
 11 39  1  0  0  0
 12 24  1  0  0  0
 12 25  1  0  0  0
 12 40  1  0  0  0
 12 41  1  0  0  0
 13 25  1  0  0  0
 13 27  2  0  0  0
 13 28  1  0  0  0
 14 15  1  0  0  0
 14 42  1  0  0  0
 14 43  1  0  0  0
 14 44  1  0  0  0
 15 16  1  0  0  0
 16 45  1  0  0  0
 17 46  1  0  0  0
 20 21  1  0  0  0
 20 47  1  0  0  0
 20 48  1  0  0  0
 21 22  1  0  0  0
 21 49  1  0  0  0
 21 50  1  0  0  0
 22 24  1  0  0  0
 22 26  1  0  0  0
 23 51  1  0  0  0
 23 52  1  0  0  0
 24 53  1  0  0  0
 24 54  1  0  0  0
 25 26  1  0  0  0
 26 55  1  0  0  0
 29 56  1  0  0  0
 29 57  1  0  0  0
 29 58  1  0  0  0
 30 59  1  0  0  0
 30 60  1  0  0  0
 30 61  1  0  0  0
 31 62  1  0  0  0
 31 63  1  0  0  0
 31 64  1  0  0  0
M  END
> <s_m_source_file>
../5cte_ligand.sdf

> <i_m_source_file_index>
1

> <s_epik_input>
TjFOPVtDSF1DKEM9MTIpPVtDSF1DKD1bQ0hdW0NIXTJbQ0gzXSlDKD1PKU4oW0NIMl1bQ0gyXTMpW0NIMl1bQ0gyXUMzNFtDSDJdW0NIMl1OKFtDQEhdNFtDSDNdKUMoPU8pT1tDSDJdQyhbQ0gzXSkoW0NIM10pW0NIM10=

> <s_epik_cmdline>
J2VwaWtfYXBwJywgJy1pbWFlJywgJ2xpZ2FuZF9wcm8ubWFlJywgJy1vbWFlJywgJ2xpZ2FuZF9wcmVwLm1hZScsICctbXMnLCAnMScsICctcGgnLCAnNycsICctcGh0JywgJzAuNScsICctbnQn

> <r_lp_tautomer_probability>
1

> <r_epik_Ionization_Penalty>
  0.0000

> <r_epik_Ionization_Penalty_Charging>
  0.0000

> <r_epik_Ionization_Penalty_Neutral>
  0.0000

> <r_epik_State_Penalty>
 -0.0000

> <r_epik_Charging_Adjusted_Penalty>
0

> <i_epik_Tot_Q>
0

> <i_epik_Tot_abs_Q>
0

> <s_epik_Chemistry_Notes>
This compound has an ester and may undergo hydrolysis at high or low pH. This compound has an imine and may undergo hydrolysis.

$$$$
