5cvd_ligand
                    3D
 Schrodinger Suite 2020-3.
113113  0  0  1  0            999 V2000
  -17.0770   19.7300  -31.3660 O   0  0  0  0  0  0
  -17.6490   20.0810  -32.4340 C   0  0  0  0  0  0
  -18.8710   20.9920  -32.3740 C   0  0  0  0  0  0
  -18.7060   21.8400  -31.2090 N   0  3  0  0  0  0
  -17.6870   22.8260  -31.4480 C   0  0  0  0  0  0
  -19.9380   22.5110  -30.8960 C   0  0  0  0  0  0
  -17.2350   19.6880  -33.6430 N   0  0  0  0  0  0
  -15.9600   18.9800  -33.7910 C   0  0  2  0  0  0
  -14.8380   19.7740  -33.1400 C   0  0  0  0  0  0
  -14.8560   21.0020  -33.2190 O   0  0  0  0  0  0
  -15.7480   18.9450  -35.3040 C   0  0  0  0  0  0
  -17.0720   19.1530  -35.9000 C   0  0  0  0  0  0
  -17.8790   19.9590  -34.9360 C   0  0  0  0  0  0
  -13.8830   19.0800  -32.5310 N   0  0  0  0  0  0
  -12.7780   19.7230  -31.8350 C   0  0  2  0  0  0
  -11.4840   18.9710  -32.0580 C   0  0  0  0  0  0
  -11.4560   17.7460  -32.0020 O   0  0  0  0  0  0
  -13.0440   19.7630  -30.3230 C   0  0  0  0  0  0
  -14.1200   20.7300  -29.8800 C   0  0  0  0  0  0
  -13.6960   22.1660  -30.0980 C   0  0  0  0  0  0
  -14.5860   23.0970  -29.4190 N   0  0  0  0  0  0
  -14.9520   24.2890  -29.8870 C   0  0  0  0  0  0
  -14.5410   24.7190  -31.0770 N   0  0  0  0  0  0
  -15.7650   25.0470  -29.1660 N   0  3  0  0  0  0
  -10.4080   19.7080  -32.3100 N   0  0  0  0  0  0
   -9.0820   19.1110  -32.3770 C   0  0  2  0  0  0
   -8.7840   18.3800  -31.0740 C   0  0  0  0  0  0
   -9.0520   18.8960  -29.9850 O   0  0  0  0  0  0
   -8.0150   20.1830  -32.6240 C   0  0  0  0  0  0
   -6.6110   19.6090  -32.7870 C   0  0  0  0  0  0
   -5.5420   20.6630  -33.0340 C   0  0  0  0  0  0
   -4.6770   20.2630  -34.1440 N   0  0  0  0  0  0
   -4.8550   20.6300  -35.4090 C   0  0  0  0  0  0
   -4.0180   20.1990  -36.3460 N   0  0  0  0  0  0
   -5.8610   21.4290  -35.7460 N   0  3  0  0  0  0
   -8.2290   17.1820  -31.1770 N   0  0  0  0  0  0
   -7.8650   16.4450  -29.9780 C   0  0  2  0  0  0
   -6.8280   17.2500  -29.2090 C   0  0  0  0  0  0
   -5.9400   17.8480  -29.8100 O   0  0  0  0  0  0
   -7.3240   15.0710  -30.3390 C   0  0  0  0  0  0
   -8.3540   14.1890  -30.9950 C   0  0  0  0  0  0
   -7.9040   12.7460  -31.0540 C   0  0  0  0  0  0
   -6.6730   12.6030  -31.8220 N   0  0  0  0  0  0
   -6.6130   12.5700  -33.1510 C   0  0  0  0  0  0
   -7.7180   12.6750  -33.8790 N   0  0  0  0  0  0
   -5.4420   12.4410  -33.7570 N   0  3  0  0  0  0
   -6.9530   17.2740  -27.8850 N   0  0  0  0  0  0
   -6.0930   18.1100  -27.0450 C   0  0  2  0  0  0
   -4.6350   17.6610  -27.1180 C   0  0  0  0  0  0
   -4.3420   16.5280  -27.5050 O   0  0  0  0  0  0
   -6.5840   18.1030  -25.5900 C   0  0  0  0  0  0
   -5.5800   17.6430  -24.6970 O   0  0  0  0  0  0
   -3.7230   18.4230  -26.7910 O   0  5  0  0  0  0
  -18.9235   21.5960  -33.2919 H   0  0  0  0  0  0
  -19.7807   20.3799  -32.2853 H   0  0  0  0  0  0
  -18.4111   21.2088  -30.3578 H   0  0  0  0  0  0
  -16.7390   22.3226  -31.6887 H   0  0  0  0  0  0
  -17.5559   23.4435  -30.5472 H   0  0  0  0  0  0
  -17.9866   23.4660  -32.2909 H   0  0  0  0  0  0
  -20.7251   21.7651  -30.7112 H   0  0  0  0  0  0
  -20.2312   23.1519  -31.7405 H   0  0  0  0  0  0
  -19.8005   23.1294  -29.9968 H   0  0  0  0  0  0
  -15.9998   17.9916  -33.3099 H   0  0  0  0  0  0
  -15.0502   19.7440  -35.5950 H   0  0  0  0  0  0
  -15.3298   17.9696  -35.5932 H   0  0  0  0  0  0
  -16.9644   19.6906  -36.8537 H   0  0  0  0  0  0
  -17.5502   18.1789  -36.0801 H   0  0  0  0  0  0
  -18.9301   19.6370  -34.8967 H   0  0  0  0  0  0
  -17.8336   21.0371  -35.1495 H   0  0  0  0  0  0
  -13.9473   17.9824  -32.5652 H   0  0  0  0  0  0
  -12.7208   20.7294  -32.2754 H   0  0  0  0  0  0
  -13.3598   18.7668  -29.9798 H   0  0  0  0  0  0
  -12.1242   20.0577  -29.7965 H   0  0  0  0  0  0
  -15.0384   20.5460  -30.4568 H   0  0  0  0  0  0
  -14.3246   20.5854  -28.8089 H   0  0  0  0  0  0
  -12.6781   22.3111  -29.7070 H   0  0  0  0  0  0
  -13.7113   22.3935  -31.1741 H   0  0  0  0  0  0
  -15.0126   22.8350  -28.4395 H   0  0  0  0  0  0
  -13.8659   24.0972  -31.6834 H   0  0  0  0  0  0
  -14.8762   25.6963  -31.4545 H   0  0  0  0  0  0
  -16.1106   24.7006  -28.1808 H   0  0  0  0  0  0
  -10.5331   20.7892  -32.4695 H   0  0  0  0  0  0
   -9.1113   18.4061  -33.2209 H   0  0  0  0  0  0
   -8.2564   20.7354  -33.5441 H   0  0  0  0  0  0
   -7.9917   20.8800  -31.7733 H   0  0  0  0  0  0
   -6.3288   19.0654  -31.8733 H   0  0  0  0  0  0
   -6.5940   18.9195  -33.6439 H   0  0  0  0  0  0
   -6.0221   21.6212  -33.2818 H   0  0  0  0  0  0
   -4.9294   20.7833  -32.1283 H   0  0  0  0  0  0
   -3.8087   19.6137  -33.9583 H   0  0  0  0  0  0
   -3.1824   19.5370  -36.0748 H   0  0  0  0  0  0
   -4.1604   20.5041  -37.3932 H   0  0  0  0  0  0
   -6.5584   21.7901  -34.9757 H   0  0  0  0  0  0
   -8.0434   16.7446  -32.1691 H   0  0  0  0  0  0
   -8.7805   16.3183  -29.3815 H   0  0  0  0  0  0
   -6.4824   15.1806  -31.0388 H   0  0  0  0  0  0
   -6.9788   14.5617  -29.4272 H   0  0  0  0  0  0
   -9.2929   14.2344  -30.4237 H   0  0  0  0  0  0
   -8.5332   14.5367  -32.0231 H   0  0  0  0  0  0
   -7.7236   12.3762  -30.0339 H   0  0  0  0  0  0
   -8.6858   12.1373  -31.5317 H   0  0  0  0  0  0
   -5.7077   12.5135  -31.3022 H   0  0  0  0  0  0
   -8.6945   12.7824  -33.3841 H   0  0  0  0  0  0
   -7.6572   12.6546  -34.9771 H   0  0  0  0  0  0
   -4.5213   12.3534  -33.1615 H   0  0  0  0  0  0
   -7.7275   16.6437  -27.4236 H   0  0  0  0  0  0
   -6.1768   19.1214  -27.4693 H   0  0  0  0  0  0
   -6.8682   19.1236  -25.2940 H   0  0  0  0  0  0
   -7.4564   17.4390  -25.5006 H   0  0  0  0  0  0
   -5.7884   17.5835  -23.6186 H   0  0  0  0  0  0
  -16.0944   26.0227  -29.5526 H   0  0  0  0  0  0
   -5.9968   21.7296  -36.7954 H   0  0  0  0  0  0
   -5.3904   12.4215  -34.8556 H   0  0  0  0  0  0
  1  2  2  0  0  0
  2  3  1  0  0  0
  2  7  1  0  0  0
  3  4  1  0  0  0
  3 54  1  0  0  0
  3 55  1  0  0  0
  4  5  1  0  0  0
  4  6  1  0  0  0
  4 56  1  0  0  0
  5 57  1  0  0  0
  5 58  1  0  0  0
  5 59  1  0  0  0
  6 60  1  0  0  0
  6 61  1  0  0  0
  6 62  1  0  0  0
  7  8  1  0  0  0
  7 13  1  0  0  0
  8  9  1  0  0  0
  8 11  1  0  0  0
  8 63  1  0  0  0
  9 10  2  0  0  0
  9 14  1  0  0  0
 11 12  1  0  0  0
 11 64  1  0  0  0
 11 65  1  0  0  0
 12 13  1  0  0  0
 12 66  1  0  0  0
 12 67  1  0  0  0
 13 68  1  0  0  0
 13 69  1  0  0  0
 14 15  1  0  0  0
 14 70  1  0  0  0
 15 16  1  0  0  0
 15 18  1  0  0  0
 15 71  1  0  0  0
 16 17  2  0  0  0
 16 25  1  0  0  0
 18 19  1  0  0  0
 18 72  1  0  0  0
 18 73  1  0  0  0
 19 20  1  0  0  0
 19 74  1  0  0  0
 19 75  1  0  0  0
 20 21  1  0  0  0
 20 76  1  0  0  0
 20 77  1  0  0  0
 21 22  1  0  0  0
 21 78  1  0  0  0
 22 23  1  0  0  0
 22 24  2  0  0  0
 23 79  1  0  0  0
 23 80  1  0  0  0
 24 81  1  0  0  0
 24111  1  0  0  0
 25 26  1  0  0  0
 25 82  1  0  0  0
 26 27  1  0  0  0
 26 29  1  0  0  0
 26 83  1  0  0  0
 27 28  2  0  0  0
 27 36  1  0  0  0
 29 30  1  0  0  0
 29 84  1  0  0  0
 29 85  1  0  0  0
 30 31  1  0  0  0
 30 86  1  0  0  0
 30 87  1  0  0  0
 31 32  1  0  0  0
 31 88  1  0  0  0
 31 89  1  0  0  0
 32 33  1  0  0  0
 32 90  1  0  0  0
 33 34  1  0  0  0
 33 35  2  0  0  0
 34 91  1  0  0  0
 34 92  1  0  0  0
 35 93  1  0  0  0
 35112  1  0  0  0
 36 37  1  0  0  0
 36 94  1  0  0  0
 37 38  1  0  0  0
 37 40  1  0  0  0
 37 95  1  0  0  0
 38 39  2  0  0  0
 38 47  1  0  0  0
 40 41  1  0  0  0
 40 96  1  0  0  0
 40 97  1  0  0  0
 41 42  1  0  0  0
 41 98  1  0  0  0
 41 99  1  0  0  0
 42 43  1  0  0  0
 42100  1  0  0  0
 42101  1  0  0  0
 43 44  1  0  0  0
 43102  1  0  0  0
 44 45  1  0  0  0
 44 46  2  0  0  0
 45103  1  0  0  0
 45104  1  0  0  0
 46105  1  0  0  0
 46113  1  0  0  0
 47 48  1  0  0  0
 47106  1  0  0  0
 48 49  1  0  0  0
 48 51  1  0  0  0
 48107  1  0  0  0
 49 50  2  0  0  0
 49 53  1  0  0  0
 51 52  1  0  0  0
 51108  1  0  0  0
 51109  1  0  0  0
 52110  1  0  0  0
M  CHG  5   4   1  24   1  35   1  46   1  53  -1
M  END
> <s_m_source_file>
../5cvd_ligand.sdf

> <i_m_source_file_index>
1

> <s_epik_input>
W0NIM11bTkgrXShbQ0gzXSlbQ0gyXUMoPU8pTjFbQ0BASF0oW0NIMl1bQ0gyXVtDSDJdMSlDKD1PKVtOSF1bQ0BASF0oW0NIMl1bQ0gyXVtDSDJdW05IXS9DKFtOSDJdKT1OXFtIXSlDKD1PKVtOSF1bQ0BASF0oW0NIMl1bQ0gyXVtDSDJdW05IXS9DKFtOSDJdKT1OXFtIXSlDKD1PKVtOSF1bQ0BIXShDKD1PKVtOSF1bQ0BIXShDKD1PKVtPSF0pW0NIMl1bT0hdKVtDSDJdW0NIMl1bQ0gyXVtOSF0vQyhbTkgyXSk9TlxbSF0=

> <s_epik_cmdline>
J2VwaWtfYXBwJywgJy1pbWFlJywgJ2xpZ2FuZF9wcm8ubWFlJywgJy1vbWFlJywgJ2xpZ2FuZF9wcmVwLm1hZScsICctbXMnLCAnMScsICctcGgnLCAnNycsICctcGh0JywgJzAuNScsICctbnQn

> <r_epik_Ionization_Penalty>
  0.0415

> <r_epik_Ionization_Penalty_Charging>
  0.0415

> <r_epik_Ionization_Penalty_Neutral>
  0.0000

> <r_epik_State_Penalty>
  0.0349

> <r_epik_Charging_Adjusted_Penalty>
0.076373667097142

> <i_epik_Tot_Q>
3

> <i_epik_Tot_abs_Q>
5

> <s_epik_Chemistry_Notes>
This compound has an imine and may undergo hydrolysis.

$$$$
