5cwa_ligand
                    3D
 Schrodinger Suite 2020-3.
 25 25  0  0  1  0            999 V2000
   48.2880  -45.7430   -6.5980 O   0  0  0  0  0  0
   48.0450  -45.7600   -5.3950 C   0  0  0  0  0  0
   47.3270  -44.9110   -4.8460 O   0  5  0  0  0  0
   48.6520  -46.7910   -4.5970 C   0  0  0  0  0  0
   48.9660  -47.9780   -5.0890 C   0  0  0  0  0  0
   49.6090  -49.0380   -4.2340 C   0  0  0  0  0  0
   48.9160  -46.4920   -3.2360 O   0  0  0  0  0  0
   49.9310  -45.6600   -2.8940 C   0  0  0  0  0  0
   50.9220  -45.2290   -3.7750 C   0  0  0  0  0  0
   51.8990  -44.3700   -3.2980 C   0  0  0  0  0  0
   51.8650  -43.9410   -1.9760 C   0  0  0  0  0  0
   49.9130  -45.2480   -1.5980 C   0  0  0  0  0  0
   48.8750  -45.7110   -0.8310 O   0  0  0  0  0  0
   50.8670  -44.3680   -1.1240 C   0  0  0  0  0  0
   50.8150  -43.9230    0.3020 C   0  0  0  0  0  0
   49.9570  -44.4360    1.0340 O   0  0  0  0  0  0
   51.6180  -43.0960    0.7710 O   0  5  0  0  0  0
   48.7581  -48.2085   -6.1443 H   0  0  0  0  0  0
   49.7833  -49.9405   -4.8382 H   0  0  0  0  0  0
   48.9446  -49.2829   -3.3922 H   0  0  0  0  0  0
   50.5687  -48.6647   -3.8472 H   0  0  0  0  0  0
   50.9280  -45.5597   -4.8136 H   0  0  0  0  0  0
   52.6953  -44.0301   -3.9602 H   0  0  0  0  0  0
   52.6338  -43.2610   -1.6091 H   0  0  0  0  0  0
   48.1434  -46.4113   -1.2605 H   0  0  0  0  0  0
  1  2  2  0  0  0
  2  3  1  0  0  0
  2  4  1  0  0  0
  4  5  2  0  0  0
  4  7  1  0  0  0
  5  6  1  0  0  0
  5 18  1  0  0  0
  6 19  1  0  0  0
  6 20  1  0  0  0
  6 21  1  0  0  0
  7  8  1  0  0  0
  8  9  2  0  0  0
  8 12  1  0  0  0
  9 10  1  0  0  0
  9 22  1  0  0  0
 10 11  2  0  0  0
 10 23  1  0  0  0
 11 14  1  0  0  0
 11 24  1  0  0  0
 12 13  1  0  0  0
 12 14  2  0  0  0
 13 25  1  0  0  0
 14 15  1  0  0  0
 15 16  2  0  0  0
 15 17  1  0  0  0
M  CHG  2   3  -1  17  -1
M  END
> <s_m_source_file>
../5cwa_ligand.sdf

> <i_m_source_file_index>
1

> <s_epik_input>
Tz1DKFtPSF0pL0MoPVtDSF0vW0NIM10pT2MxW2NIXVtjSF1bY0hdYyhjMVtPSF0pQyg9TylbT0hd

> <s_epik_cmdline>
J2VwaWtfYXBwJywgJy1pbWFlJywgJ2xpZ2FuZF9wcm8ubWFlJywgJy1vbWFlJywgJ2xpZ2FuZF9wcmVwLm1hZScsICctbXMnLCAnMScsICctcGgnLCAnNycsICctcGh0JywgJzAuNScsICctbnQn

> <r_lp_tautomer_probability>
1

> <r_epik_Ionization_Penalty>
  0.0001

> <r_epik_Ionization_Penalty_Charging>
  0.0001

> <r_epik_Ionization_Penalty_Neutral>
  0.0000

> <r_epik_State_Penalty>
 -0.0000

> <r_epik_Charging_Adjusted_Penalty>
9.42937849837559e-05

> <i_epik_Tot_Q>
-2

> <i_epik_Tot_abs_Q>
2

$$$$
