5cxh_ligand
                    3D
 Schrodinger Suite 2020-3.
 49 52  0  0  1  0            999 V2000
    3.3970    0.5520   14.3940 C   0  0  0  0  0  0
    3.2010   -0.5320   15.1970 C   0  0  0  0  0  0
    1.9480   -1.1110   15.3160 C   0  0  0  0  0  0
    2.0350    5.0430   13.8590 C   0  0  0  0  0  0
    4.0050    5.1180   12.6830 C   0  0  0  0  0  0
    3.0060    4.7340   11.6390 C   0  0  0  0  0  0
    1.7450    4.4710   12.4710 C   0  0  1  0  0  0
    1.3670    2.9570   12.4790 C   0  0  1  0  0  0
    0.8410    2.4130   11.1140 C   0  0  0  0  0  0
   -1.4530   -0.2940   14.0710 C   0  0  0  0  0  0
   -2.7800   -0.6550   14.1980 C   0  0  0  0  0  0
   -3.1060   -1.7240   14.9950 C   0  0  0  0  0  0
   -2.0930   -2.4070   15.6700 C   0  0  0  0  0  0
   -0.7750   -2.0510   15.5540 C   0  0  0  0  0  0
   -3.7150    1.2430   12.9990 C   0  0  0  0  0  0
   -4.8920   -2.8510   16.1880 C   0  0  0  0  0  0
    0.9290   -0.5190   14.5860 C   0  0  0  0  0  0
    1.1510    0.5610   13.8270 N   0  0  0  0  0  0
    2.3320    1.1250   13.6980 C   0  0  0  0  0  0
   -0.4510   -1.0090   14.6990 C   0  0  0  0  0  0
    5.0550    1.1340   14.3630 S   0  0  0  0  0  0
    5.3450   -0.1930   15.4900 C   0  0  0  0  0  0
    4.3450   -0.8660   15.7650 N   0  0  0  0  0  0
    3.4080    5.2540   13.8430 N   0  0  0  0  0  0
    5.1330    5.2890   12.4660 O   0  0  0  0  0  0
    2.5080    2.2310   12.9170 O   0  0  0  0  0  0
   -4.4460   -2.0540   15.1160 O   0  0  0  0  0  0
   -3.8040   -0.0120   13.5720 O   0  0  0  0  0  0
    1.7734   -1.9821   15.9475 H   0  0  0  0  0  0
    1.4697    5.9766   13.9962 H   0  0  0  0  0  0
    1.7324    4.3150   14.6262 H   0  0  0  0  0  0
    2.8832    5.5630   10.9265 H   0  0  0  0  0  0
    3.3597    3.8402   11.1041 H   0  0  0  0  0  0
    0.8661    4.9798   12.0484 H   0  0  0  0  0  0
    0.5787    2.7633   13.2213 H   0  0  0  0  0  0
   -0.0398    2.9938   10.8028 H   0  0  0  0  0  0
    0.5622    1.3546   11.2240 H   0  0  0  0  0  0
    1.6299    2.5072   10.3532 H   0  0  0  0  0  0
   -1.1908    0.5721   13.4633 H   0  0  0  0  0  0
   -2.3586   -3.2493   16.3089 H   0  0  0  0  0  0
   -0.0023   -2.5729   16.1186 H   0  0  0  0  0  0
   -4.6878    1.5178   12.5652 H   0  0  0  0  0  0
   -2.9508    1.2315   12.2079 H   0  0  0  0  0  0
   -3.4357    1.9782   13.7680 H   0  0  0  0  0  0
   -5.9789   -2.9994   16.1071 H   0  0  0  0  0  0
   -4.6602   -2.3493   17.1391 H   0  0  0  0  0  0
   -4.3852   -3.8267   16.1551 H   0  0  0  0  0  0
    6.3285   -0.4027   15.9105 H   0  0  0  0  0  0
    3.9345    5.5195   14.7716 H   0  0  0  0  0  0
  1  2  2  0  0  0
  1 19  1  0  0  0
  1 21  1  0  0  0
  2  3  1  0  0  0
  2 23  1  0  0  0
  3 17  2  0  0  0
  3 29  1  0  0  0
  4  7  1  0  0  0
  4 24  1  0  0  0
  4 30  1  0  0  0
  4 31  1  0  0  0
  5  6  1  0  0  0
  5 24  1  0  0  0
  5 25  2  0  0  0
  6  7  1  0  0  0
  6 32  1  0  0  0
  6 33  1  0  0  0
  7  8  1  0  0  0
  7 34  1  0  0  0
  8  9  1  0  0  0
  8 26  1  0  0  0
  8 35  1  0  0  0
  9 36  1  0  0  0
  9 37  1  0  0  0
  9 38  1  0  0  0
 10 11  2  0  0  0
 10 20  1  0  0  0
 10 39  1  0  0  0
 11 12  1  0  0  0
 11 28  1  0  0  0
 12 13  2  0  0  0
 12 27  1  0  0  0
 13 14  1  0  0  0
 13 40  1  0  0  0
 14 20  2  0  0  0
 14 41  1  0  0  0
 15 28  1  0  0  0
 15 42  1  0  0  0
 15 43  1  0  0  0
 15 44  1  0  0  0
 16 27  1  0  0  0
 16 45  1  0  0  0
 16 46  1  0  0  0
 16 47  1  0  0  0
 17 18  1  0  0  0
 17 20  1  0  0  0
 18 19  2  0  0  0
 19 26  1  0  0  0
 21 22  1  0  0  0
 22 23  2  0  0  0
 22 48  1  0  0  0
 24 49  1  0  0  0
M  END
> <s_m_source_file>
../5cxh_ligand.sdf

> <i_m_source_file_index>
1

> <s_epik_input>
W0NIM11PYzFbY0hdW2NIXWMoW2NIXWMxT1tDSDNdKS1jKFtjSF1jKGMyMyluW2NIXXMzKW5jMk9bQ0BIXShbQ0gzXSlbQ0BASF0oW0NIMl1bTkhdNClbQ0gyXUM0PU8=

> <s_epik_cmdline>
J2VwaWtfYXBwJywgJy1pbWFlJywgJ2xpZ2FuZF9wcm8ubWFlJywgJy1vbWFlJywgJ2xpZ2FuZF9wcmVwLm1hZScsICctbXMnLCAnMScsICctcGgnLCAnNycsICctcGh0JywgJzAuNScsICctbnQn

> <r_lp_tautomer_probability>
1

> <r_epik_Ionization_Penalty>
  0.0000

> <r_epik_Ionization_Penalty_Charging>
  0.0000

> <r_epik_Ionization_Penalty_Neutral>
  0.0000

> <r_epik_State_Penalty>
 -0.0000

> <r_epik_Charging_Adjusted_Penalty>
0

> <i_epik_Tot_Q>
0

> <i_epik_Tot_abs_Q>
0

$$$$
