5cxz_ligand
                    3D
 Schrodinger Suite 2020-3.
 48 50  0  0  1  0            999 V2000
    1.3320   -1.0590   15.9100 C   0  0  0  0  0  0
    6.1890    0.2840   15.9420 C   0  0  0  0  0  0
    3.8600    0.0190   15.3700 C   0  0  0  0  0  0
    1.9370    1.9620   12.4530 C   0  0  0  0  0  0
    1.0710    3.1470   12.8640 C   0  0  0  0  0  0
    1.4150    3.9130   14.1380 C   0  0  0  0  0  0
   -5.1160   -2.5000   15.8430 C   0  0  0  0  0  0
   -3.9960   -2.9140   16.6790 N   0  0  0  0  0  0
   -4.2960   -3.6070   17.9260 C   0  0  0  0  0  0
   -2.6270   -2.4610   16.3900 C   0  0  0  0  0  0
   -2.3450   -1.4840   15.4070 C   0  0  0  0  0  0
   -1.0280   -0.9970   15.2730 C   0  0  0  0  0  0
    0.0180   -1.4990   16.0920 C   0  0  0  0  0  0
   -0.2580   -2.5180   17.0100 C   0  0  0  0  0  0
   -1.5670   -3.0010   17.1430 C   0  0  0  0  0  0
    2.4310   -1.3460   16.7550 C   0  0  0  0  0  0
    3.6890   -0.8530   16.4390 C   0  0  0  0  0  0
    4.7640   -1.1240   17.2530 N   0  0  0  0  0  0
    6.0090   -0.5740   17.0260 C   0  0  0  0  0  0
    5.1250    0.5640   15.1170 C   0  0  0  0  0  0
    2.7290    0.3650   14.6160 C   0  0  0  0  0  0
    2.6640    1.2690   13.4920 N   0  0  0  0  0  0
    1.1420    5.3510   14.0970 N   0  3  0  0  0  0
    1.5170   -0.1870   14.8800 N   0  0  0  0  0  0
    7.1652    0.7293   15.7499 H   0  0  0  0  0  0
    1.3071    1.1942   11.9800 H   0  0  0  0  0  0
    2.7036    2.2981   11.7393 H   0  0  0  0  0  0
    1.0928    3.9094   12.0714 H   0  0  0  0  0  0
    0.0359    2.8085   13.0187 H   0  0  0  0  0  0
    0.8312    3.5085   14.9780 H   0  0  0  0  0  0
    2.4886    3.8053   14.3521 H   0  0  0  0  0  0
   -6.0452   -2.9455   16.2279 H   0  0  0  0  0  0
   -4.9474   -2.8387   14.8101 H   0  0  0  0  0  0
   -5.2006   -1.4034   15.8602 H   0  0  0  0  0  0
   -5.3655   -3.8624   17.9554 H   0  0  0  0  0  0
   -4.0515   -2.9537   18.7765 H   0  0  0  0  0  0
   -3.6973   -4.5278   17.9869 H   0  0  0  0  0  0
   -3.1380   -1.1108   14.7590 H   0  0  0  0  0  0
   -0.8107   -0.2270   14.5328 H   0  0  0  0  0  0
    0.5430   -2.9353   17.6203 H   0  0  0  0  0  0
   -1.7685   -3.8112   17.8437 H   0  0  0  0  0  0
    2.2896   -1.9517   17.6501 H   0  0  0  0  0  0
    6.8432   -0.8080   17.6874 H   0  0  0  0  0  0
    5.2678    1.2175   14.2564 H   0  0  0  0  0  0
    3.7491    1.4162   13.5959 H   0  0  0  0  0  0
    1.4238    5.8052   15.0584 H   0  0  0  0  0  0
    0.0699    5.5156   13.9139 H   0  0  0  0  0  0
    1.7273    5.8124   13.2879 H   0  0  0  0  0  0
  1 13  1  0  0  0
  1 16  2  0  0  0
  1 24  1  0  0  0
  2 19  1  0  0  0
  2 20  2  0  0  0
  2 25  1  0  0  0
  3 17  2  0  0  0
  3 20  1  0  0  0
  3 21  1  0  0  0
  4  5  1  0  0  0
  4 22  1  0  0  0
  4 26  1  0  0  0
  4 27  1  0  0  0
  5  6  1  0  0  0
  5 28  1  0  0  0
  5 29  1  0  0  0
  6 23  1  0  0  0
  6 30  1  0  0  0
  6 31  1  0  0  0
  7  8  1  0  0  0
  7 32  1  0  0  0
  7 33  1  0  0  0
  7 34  1  0  0  0
  8  9  1  0  0  0
  8 10  1  0  0  0
  9 35  1  0  0  0
  9 36  1  0  0  0
  9 37  1  0  0  0
 10 11  2  0  0  0
 10 15  1  0  0  0
 11 12  1  0  0  0
 11 38  1  0  0  0
 12 13  2  0  0  0
 12 39  1  0  0  0
 13 14  1  0  0  0
 14 15  2  0  0  0
 14 40  1  0  0  0
 15 41  1  0  0  0
 16 17  1  0  0  0
 16 42  1  0  0  0
 17 18  1  0  0  0
 18 19  2  0  0  0
 19 43  1  0  0  0
 20 44  1  0  0  0
 21 22  1  0  0  0
 21 24  2  0  0  0
 22 45  1  0  0  0
 23 46  1  0  0  0
 23 47  1  0  0  0
 23 48  1  0  0  0
M  CHG  1  23   1
M  END
> <s_m_source_file>
../5cxz_ligand.sdf

> <i_m_source_file_index>
1

> <s_epik_input>
W0NIM11OKFtDSDNdKWMxW2NIXVtjSF1jKFtjSF1bY0hdMSktYyhbY0hdYyhjMjMpbltjSF1bY0hdW2NIXTIpbmMzW05IXVtDSDJdW0NIMl1bQ0gyXVtOSDMrXQ==

> <s_epik_cmdline>
J2VwaWtfYXBwJywgJy1pbWFlJywgJ2xpZ2FuZF9wcm8ubWFlJywgJy1vbWFlJywgJ2xpZ2FuZF9wcmVwLm1hZScsICctbXMnLCAnMScsICctcGgnLCAnNycsICctcGh0JywgJzAuNScsICctbnQn

> <r_lp_tautomer_probability>
1

> <r_epik_Ionization_Penalty>
  0.0064

> <r_epik_Ionization_Penalty_Charging>
  0.0004

> <r_epik_Ionization_Penalty_Neutral>
  0.0061

> <r_epik_State_Penalty>
 -0.0000

> <r_epik_Charging_Adjusted_Penalty>
0.000367763986539853

> <i_epik_Tot_Q>
1

> <i_epik_Tot_abs_Q>
1

$$$$
