5cyi_ligand
                    3D
 Schrodinger Suite 2020-3.
 53 56  0  0  1  0            999 V2000
    5.9130   41.7830   47.7410 C   0  0  0  0  0  0
    1.6370   46.1440   53.9050 C   0  0  0  0  0  0
    6.3110   42.3450   48.9570 C   0  0  0  0  0  0
    7.8590   44.0730   49.9210 C   0  0  0  0  0  0
    4.8560   46.1260   51.7890 C   0  0  0  0  0  0
    9.4660   45.2760   50.9330 C   0  0  0  0  0  0
   10.4420   46.7330   52.1720 C   0  0  0  0  0  0
    8.5330   45.9960   51.6580 C   0  0  0  0  0  0
    7.1990   45.6690   51.4470 C   0  0  0  0  0  0
    3.9810   46.4140   52.9730 C   0  0  0  0  0  0
    2.5510   45.9350   52.6960 C   0  0  0  0  0  0
    9.1760   44.2910   50.0760 N   0  0  0  0  0  0
   10.6670   45.7460   51.2890 N   0  0  0  0  0  0
    4.7270   41.0750   47.6590 C   0  0  0  0  0  0
    9.1590   46.8890   52.4300 N   0  0  0  0  0  0
    2.3240   39.1970   49.8850 O   0  0  0  0  0  0
    2.4270   39.9970   48.6930 S   0  0  0  0  0  0
    2.3800   39.3340   47.4160 O   0  0  0  0  0  0
    1.1510   41.2390   48.7380 C   0  0  0  0  0  0
   -0.0290   40.9730   49.6310 C   0  0  0  0  0  0
    3.9310   40.9280   48.7840 C   0  0  0  0  0  0
    4.3180   41.4790   49.9950 C   0  0  0  0  0  0
    5.4990   42.1850   50.0860 C   0  0  0  0  0  0
    7.5410   43.0990   49.0590 N   0  0  0  0  0  0
    6.8770   44.7260   50.5720 N   0  0  0  0  0  0
    6.2350   46.3860   52.1350 O   0  0  0  0  0  0
    4.5320   45.7720   54.2440 C   0  0  0  0  0  0
    3.6120   46.0000   55.4340 C   0  0  0  0  0  0
    2.2080   45.4880   55.1440 C   0  0  0  0  0  0
    6.5377   41.9026   46.8558 H   0  0  0  0  0  0
    1.5254   47.2211   54.0984 H   0  0  0  0  0  0
    0.6500   45.7044   53.6989 H   0  0  0  0  0  0
    4.7434   45.0712   51.4978 H   0  0  0  0  0  0
    4.5605   46.7718   50.9490 H   0  0  0  0  0  0
   11.2301   47.3357   52.6233 H   0  0  0  0  0  0
    3.9841   47.5041   53.1200 H   0  0  0  0  0  0
    2.5881   44.8646   52.4451 H   0  0  0  0  0  0
    2.1582   46.4994   51.8374 H   0  0  0  0  0  0
    4.4192   40.6336   46.7111 H   0  0  0  0  0  0
    1.5778   42.1906   49.0876 H   0  0  0  0  0  0
    0.7339   41.3730   47.7290 H   0  0  0  0  0  0
   -0.7359   41.8131   49.5644 H   0  0  0  0  0  0
    0.3148   40.8645   50.6703 H   0  0  0  0  0  0
   -0.5291   40.0468   49.3116 H   0  0  0  0  0  0
    3.6886   41.3543   50.8761 H   0  0  0  0  0  0
    5.8009   42.6194   51.0390 H   0  0  0  0  0  0
    4.6378   44.6878   54.0910 H   0  0  0  0  0  0
    5.5149   46.2069   54.4780 H   0  0  0  0  0  0
    4.0078   45.4667   56.3109 H   0  0  0  0  0  0
    3.5566   47.0764   55.6537 H   0  0  0  0  0  0
    1.5649   45.7132   56.0075 H   0  0  0  0  0  0
    2.2533   44.3991   54.9946 H   0  0  0  0  0  0
    5.8245   44.4744   50.3747 H   0  0  0  0  0  0
  1  3  2  0  0  0
  1 14  1  0  0  0
  1 30  1  0  0  0
  2 11  1  0  0  0
  2 29  1  0  0  0
  2 31  1  0  0  0
  2 32  1  0  0  0
  3 23  1  0  0  0
  3 24  1  0  0  0
  4 12  1  0  0  0
  4 24  2  0  0  0
  4 25  1  0  0  0
  5 10  1  0  0  0
  5 26  1  0  0  0
  5 33  1  0  0  0
  5 34  1  0  0  0
  6  8  1  0  0  0
  6 12  2  0  0  0
  6 13  1  0  0  0
  7 13  2  0  0  0
  7 15  1  0  0  0
  7 35  1  0  0  0
  8  9  2  0  0  0
  8 15  1  0  0  0
  9 25  1  0  0  0
  9 26  1  0  0  0
 10 11  1  0  0  0
 10 27  1  0  0  0
 10 36  1  0  0  0
 11 37  1  0  0  0
 11 38  1  0  0  0
 14 21  2  0  0  0
 14 39  1  0  0  0
 16 17  2  0  0  0
 17 18  2  0  0  0
 17 19  1  0  0  0
 17 21  1  0  0  0
 19 20  1  0  0  0
 19 40  1  0  0  0
 19 41  1  0  0  0
 20 42  1  0  0  0
 20 43  1  0  0  0
 20 44  1  0  0  0
 21 22  1  0  0  0
 22 23  2  0  0  0
 22 45  1  0  0  0
 23 46  1  0  0  0
 25 53  1  0  0  0
 27 28  1  0  0  0
 27 47  1  0  0  0
 27 48  1  0  0  0
 28 29  1  0  0  0
 28 49  1  0  0  0
 28 50  1  0  0  0
 29 51  1  0  0  0
 29 52  1  0  0  0
M  END
> <s_m_source_file>
../5cyi_ligand.sdf

> <i_m_source_file_index>
1

> <s_epik_input>
W0NIM11bQ0gyXVMoPU8pKD1PKWMoW2NIXVtjSF0xKVtjSF1bY0hdYzFbTkhdYyhuMiluYyhjKGMyMylbbkhdW2NIXW4zKU9bQ0gyXVtDSF00W0NIMl1bQ0gyXVtDSDJdW0NIMl1bQ0gyXTQ=

> <s_epik_cmdline>
J2VwaWtfYXBwJywgJy1pbWFlJywgJ2xpZ2FuZF9wcm8ubWFlJywgJy1vbWFlJywgJ2xpZ2FuZF9wcmVwLm1hZScsICctbXMnLCAnMScsICctcGgnLCAnNycsICctcGh0JywgJzAuNScsICctbnQn

> <r_lp_tautomer_probability>
1

> <r_epik_Ionization_Penalty>
  2.0232

> <r_epik_Ionization_Penalty_Charging>
  0.0094

> <r_epik_Ionization_Penalty_Neutral>
  2.0138

> <r_epik_State_Penalty>
 -0.0000

> <r_epik_Charging_Adjusted_Penalty>
0.00943481902408018

> <i_epik_Tot_Q>
0

> <i_epik_Tot_abs_Q>
0

$$$$
