5d10_ligand
                    3D
 Schrodinger Suite 2020-3.
 57 60  0  0  1  0            999 V2000
  -13.1120  -39.7560    4.6680 C   0  0  0  0  0  0
  -13.1500  -38.5930    5.4820 C   0  0  0  0  0  0
  -11.9680  -38.0360    6.0250 C   0  0  0  0  0  0
  -10.8110  -38.6670    5.7100 N   0  0  0  0  0  0
  -11.9000  -40.3040    4.4410 N   0  0  0  0  0  0
  -14.0720  -41.4140    3.0440 C   0  0  0  0  0  0
  -15.2830  -41.9230    2.4830 C   0  0  0  0  0  0
  -16.5020  -41.1100    2.7960 N   0  0  0  0  0  0
  -17.7520  -41.7300    2.2710 C   0  0  0  0  0  0
  -16.6610  -40.9770    4.2280 C   0  0  0  0  0  0
  -15.5570  -40.0510    4.7040 C   0  0  0  0  0  0
  -14.2210  -40.3640    4.1250 N   0  0  0  0  0  0
  -12.0750  -36.8940    6.8150 N   0  0  0  0  0  0
  -11.0480  -36.2580    7.4650 C   0  0  0  0  0  0
   -9.8140  -36.6770    7.7380 C   0  0  0  0  0  0
   -9.2210  -35.6770    8.4070 C   0  0  3  0  0  0
   -7.7840  -35.6610    8.9490 C   0  0  0  0  0  0
  -10.0560  -34.6840    8.5370 N   0  0  0  0  0  0
  -11.1140  -35.0230    7.9990 N   0  0  0  0  0  0
  -10.7710  -39.7740    4.9330 C   0  0  0  0  0  0
   -9.6290  -40.4630    4.6070 O   0  0  0  0  0  0
   -8.3280  -40.1270    4.8840 C   0  0  0  0  0  0
   -7.8950  -39.7400    6.1420 C   0  0  0  0  0  0
   -6.5480  -39.4350    6.3700 C   0  0  0  0  0  0
   -7.3770  -40.2400    3.8640 C   0  0  0  0  0  0
   -6.0250  -39.9420    4.0900 C   0  0  0  0  0  0
   -5.5960  -39.5420    5.3580 C   0  0  0  0  0  0
   -4.3020  -39.2200    5.5650 N   0  0  0  0  0  0
   -3.3800  -40.0190    6.1770 C   0  0  0  0  0  0
   -2.2110  -39.6390    6.2850 O   0  0  0  0  0  0
   -3.8000  -41.4130    6.7380 C   0  0  0  0  0  0
   -2.7720  -42.3220    7.4490 C   0  0  0  0  0  0
  -14.1091  -38.1198    5.6928 H   0  0  0  0  0  0
  -13.1009  -41.7870    2.6865 H   0  0  0  0  0  0
  -15.2654  -42.8415    1.8780 H   0  0  0  0  0  0
  -17.6721  -41.8493    1.1804 H   0  0  0  0  0  0
  -18.6095  -41.0828    2.5072 H   0  0  0  0  0  0
  -17.8967  -42.7154    2.7380 H   0  0  0  0  0  0
  -17.6512  -40.5520    4.4490 H   0  0  0  0  0  0
  -16.5730  -41.9666    4.7002 H   0  0  0  0  0  0
  -15.8006  -39.0156    4.4237 H   0  0  0  0  0  0
  -15.4645  -40.1226    5.7978 H   0  0  0  0  0  0
  -13.0554  -36.4178    6.9635 H   0  0  0  0  0  0
   -9.4877  -37.6758    7.4126 H   0  0  0  0  0  0
   -7.2910  -36.6147    8.7091 H   0  0  0  0  0  0
   -7.8052  -35.5234   10.0402 H   0  0  0  0  0  0
   -7.2266  -34.8334    8.4858 H   0  0  0  0  0  0
   -8.6101  -39.6724    6.9619 H   0  0  0  0  0  0
   -6.2367  -39.1064    7.3616 H   0  0  0  0  0  0
   -7.6932  -40.5663    2.8732 H   0  0  0  0  0  0
   -5.3070  -40.0228    3.2739 H   0  0  0  0  0  0
   -3.9173  -38.2456    5.2297 H   0  0  0  0  0  0
   -4.5920  -41.2821    7.4901 H   0  0  0  0  0  0
   -4.1748  -42.0411    5.9164 H   0  0  0  0  0  0
   -3.2641  -43.2528    7.7675 H   0  0  0  0  0  0
   -2.3688  -41.8005    8.3296 H   0  0  0  0  0  0
   -1.9515  -42.5596    6.7559 H   0  0  0  0  0  0
  1  2  2  0  0  0
  1  5  1  0  0  0
  1 12  1  0  0  0
  2  3  1  0  0  0
  2 33  1  0  0  0
  3  4  2  0  0  0
  3 13  1  0  0  0
  4 20  1  0  0  0
  5 20  2  0  0  0
  6  7  2  0  0  0
  6 12  1  0  0  0
  6 34  1  0  0  0
  7  8  1  0  0  0
  7 35  1  0  0  0
  8  9  1  0  0  0
  8 10  1  0  0  0
  9 36  1  0  0  0
  9 37  1  0  0  0
  9 38  1  0  0  0
 10 11  1  0  0  0
 10 39  1  0  0  0
 10 40  1  0  0  0
 11 12  1  0  0  0
 11 41  1  0  0  0
 11 42  1  0  0  0
 13 14  1  0  0  0
 13 43  1  0  0  0
 14 15  2  0  0  0
 14 19  1  0  0  0
 15 16  1  0  0  0
 15 44  1  0  0  0
 16 17  1  0  0  0
 16 18  1  0  0  0
 17 45  1  0  0  0
 17 46  1  0  0  0
 17 47  1  0  0  0
 18 19  2  0  0  0
 20 21  1  0  0  0
 21 22  1  0  0  0
 22 23  2  0  0  0
 22 25  1  0  0  0
 23 24  1  0  0  0
 23 48  1  0  0  0
 24 27  2  0  0  0
 24 49  1  0  0  0
 25 26  2  0  0  0
 25 50  1  0  0  0
 26 27  1  0  0  0
 26 51  1  0  0  0
 27 28  1  0  0  0
 28 29  1  0  0  0
 28 52  1  0  0  0
 29 30  2  0  0  0
 29 31  1  0  0  0
 31 32  1  0  0  0
 31 53  1  0  0  0
 31 54  1  0  0  0
 32 55  1  0  0  0
 32 56  1  0  0  0
 32 57  1  0  0  0
M  END
> <s_m_source_file>
../5d10_ligand.sdf

> <i_m_source_file_index>
1

> <s_epik_input>
W0NIM11OMVtDSF09W0NIXU4oW0NIMl1bQ0gyXTEpYzJbY0hdYyhbTkhdQzM9W0NIXVtDSF0oW0NIM10pTj1OMyluYyhuMilPYzRbY0hdW2NIXWMoW2NIXVtjSF00KVtOSF1DKD1PKVtDSDJdW0NIM10=

> <s_epik_cmdline>
J2VwaWtfYXBwJywgJy1pbWFlJywgJ2xpZ2FuZF9wcm8ubWFlJywgJy1vbWFlJywgJ2xpZ2FuZF9wcmVwLm1hZScsICctbXMnLCAnMScsICctcGgnLCAnNycsICctcGh0JywgJzAuNScsICctbnQn

> <r_lp_tautomer_probability>
1

> <r_epik_Ionization_Penalty>
  0.0025

> <r_epik_Ionization_Penalty_Charging>
  0.0022

> <r_epik_Ionization_Penalty_Neutral>
  0.0003

> <r_epik_State_Penalty>
 -0.0000

> <r_epik_Charging_Adjusted_Penalty>
0.00223502341941783

> <i_epik_Tot_Q>
0

> <i_epik_Tot_abs_Q>
0

> <s_epik_Chemistry_Notes>
This compound has an imine and may undergo hydrolysis.

$$$$
