5d11_ligand
                    3D
 Schrodinger Suite 2020-3.
 60 63  0  0  1  0            999 V2000
  -12.7730  -39.6410    5.1620 C   0  0  0  0  0  0
  -13.0120  -38.4170    5.8090 C   0  0  0  0  0  0
  -12.0160  -37.7640    6.4970 C   0  0  0  0  0  0
  -10.8510  -38.3780    6.5400 N   0  0  0  0  0  0
  -11.5310  -40.1650    5.2560 N   0  0  0  0  0  0
  -15.1420  -39.9450    4.5400 C   0  0  0  0  0  0
  -15.7110  -40.1010    3.3090 C   0  0  0  0  0  0
  -15.6940  -41.5280    2.8830 N   0  3  0  0  0  0
  -16.6020  -41.7080    1.6970 C   0  0  0  0  0  0
  -14.3880  -42.1230    2.6790 C   0  0  0  0  0  0
  -13.3960  -41.6460    3.7910 C   0  0  0  0  0  0
  -13.7370  -40.3170    4.4610 N   0  0  0  0  0  0
  -12.2590  -36.5640    7.1600 N   0  0  0  0  0  0
  -11.3070  -35.8770    7.9000 C   0  0  0  0  0  0
  -10.0400  -36.1840    8.2640 C   0  0  0  0  0  0
   -9.5950  -35.1390    8.9730 C   0  0  3  0  0  0
   -8.2220  -34.9630    9.6180 C   0  0  0  0  0  0
  -10.5140  -34.2120    9.0260 N   0  0  0  0  0  0
  -11.5220  -34.6460    8.4020 N   0  0  0  0  0  0
  -10.5690  -39.5420    5.9780 C   0  0  0  0  0  0
   -9.2790  -39.9770    6.1720 O   0  0  0  0  0  0
   -8.9860  -41.0240    5.3400 C   0  0  0  0  0  0
   -8.5420  -40.7860    4.0290 C   0  0  0  0  0  0
   -9.1470  -42.3390    5.7910 C   0  0  0  0  0  0
   -8.8610  -43.3960    4.9170 C   0  0  0  0  0  0
   -8.4090  -43.1710    3.6060 C   0  0  0  0  0  0
   -8.2860  -41.8620    3.1300 C   0  0  0  0  0  0
   -7.8170  -41.8200    1.8600 N   0  0  0  0  0  0
   -6.9270  -40.9340    1.4420 C   0  0  0  0  0  0
   -6.6550  -39.8930    2.0210 O   0  0  0  0  0  0
   -6.2700  -41.2760    0.1310 C   0  0  0  0  0  0
   -6.5350  -40.2210   -0.9180 C   0  0  0  0  0  0
  -14.0077  -37.9756    5.7648 H   0  0  0  0  0  0
  -15.2313  -38.8948    4.8548 H   0  0  0  0  0  0
  -15.6571  -40.5906    5.2665 H   0  0  0  0  0  0
  -16.7555  -39.7576    3.3417 H   0  0  0  0  0  0
  -15.1531  -39.5080    2.5693 H   0  0  0  0  0  0
  -16.0362  -42.1137    3.7489 H   0  0  0  0  0  0
  -17.5750  -41.2393    1.9057 H   0  0  0  0  0  0
  -16.7457  -42.7815    1.5049 H   0  0  0  0  0  0
  -16.1491  -41.2348    0.8133 H   0  0  0  0  0  0
  -14.4740  -43.2189    2.7197 H   0  0  0  0  0  0
  -13.9975  -41.8222    1.6956 H   0  0  0  0  0  0
  -13.3595  -42.3951    4.5957 H   0  0  0  0  0  0
  -12.3920  -41.5232    3.3586 H   0  0  0  0  0  0
  -13.2569  -36.1034    7.1156 H   0  0  0  0  0  0
   -9.5981  -37.1446    7.9607 H   0  0  0  0  0  0
   -7.6180  -35.8662    9.4468 H   0  0  0  0  0  0
   -8.3428  -34.8022   10.6995 H   0  0  0  0  0  0
   -7.7163  -34.0937    9.1723 H   0  0  0  0  0  0
   -8.3905  -39.7602    3.6931 H   0  0  0  0  0  0
   -9.4896  -42.5378    6.8065 H   0  0  0  0  0  0
   -8.9928  -44.4210    5.2637 H   0  0  0  0  0  0
   -8.1552  -44.0134    2.9625 H   0  0  0  0  0  0
   -8.1763  -42.5469    1.1167 H   0  0  0  0  0  0
   -5.1824  -41.3553    0.2756 H   0  0  0  0  0  0
   -6.6620  -42.2359   -0.2362 H   0  0  0  0  0  0
   -6.0401  -40.5062   -1.8581 H   0  0  0  0  0  0
   -6.1391  -39.2542   -0.5738 H   0  0  0  0  0  0
   -7.6187  -40.1347   -1.0856 H   0  0  0  0  0  0
  1  2  2  0  0  0
  1  5  1  0  0  0
  1 12  1  0  0  0
  2  3  1  0  0  0
  2 33  1  0  0  0
  3  4  2  0  0  0
  3 13  1  0  0  0
  4 20  1  0  0  0
  5 20  2  0  0  0
  6  7  1  0  0  0
  6 12  1  0  0  0
  6 34  1  0  0  0
  6 35  1  0  0  0
  7  8  1  0  0  0
  7 36  1  0  0  0
  7 37  1  0  0  0
  8  9  1  0  0  0
  8 10  1  0  0  0
  8 38  1  0  0  0
  9 39  1  0  0  0
  9 40  1  0  0  0
  9 41  1  0  0  0
 10 11  1  0  0  0
 10 42  1  0  0  0
 10 43  1  0  0  0
 11 12  1  0  0  0
 11 44  1  0  0  0
 11 45  1  0  0  0
 13 14  1  0  0  0
 13 46  1  0  0  0
 14 15  2  0  0  0
 14 19  1  0  0  0
 15 16  1  0  0  0
 15 47  1  0  0  0
 16 17  1  0  0  0
 16 18  1  0  0  0
 17 48  1  0  0  0
 17 49  1  0  0  0
 17 50  1  0  0  0
 18 19  2  0  0  0
 20 21  1  0  0  0
 21 22  1  0  0  0
 22 23  2  0  0  0
 22 24  1  0  0  0
 23 27  1  0  0  0
 23 51  1  0  0  0
 24 25  2  0  0  0
 24 52  1  0  0  0
 25 26  1  0  0  0
 25 53  1  0  0  0
 26 27  2  0  0  0
 26 54  1  0  0  0
 27 28  1  0  0  0
 28 29  1  0  0  0
 28 55  1  0  0  0
 29 30  2  0  0  0
 29 31  1  0  0  0
 31 32  1  0  0  0
 31 56  1  0  0  0
 31 57  1  0  0  0
 32 58  1  0  0  0
 32 59  1  0  0  0
 32 60  1  0  0  0
M  CHG  1   8   1
M  END
> <s_m_source_file>
../5d11_ligand.sdf

> <i_m_source_file_index>
1

> <s_epik_input>
W0NIM11bTkgrXTFbQ0gyXVtDSDJdTihbQ0gyXVtDSDJdMSljMltjSF1jKFtOSF1DMz1bQ0hdW0NIXShbQ0gzXSlOPU4zKW5jKG4yKU9jNFtjSF1jKFtjSF1bY0hdW2NIXTQpW05IXUMoPU8pW0NIMl1bQ0gzXQ==

> <s_epik_cmdline>
J2VwaWtfYXBwJywgJy1pbWFlJywgJ2xpZ2FuZF9wcm8ubWFlJywgJy1vbWFlJywgJ2xpZ2FuZF9wcmVwLm1hZScsICctbXMnLCAnMScsICctcGgnLCAnNycsICctcGh0JywgJzAuNScsICctbnQn

> <r_epik_Ionization_Penalty>
  0.1867

> <r_epik_Ionization_Penalty_Charging>
  0.1866

> <r_epik_Ionization_Penalty_Neutral>
  0.0001

> <r_epik_State_Penalty>
  0.1762

> <r_epik_Charging_Adjusted_Penalty>
0.362848347749928

> <i_epik_Tot_Q>
1

> <i_epik_Tot_abs_Q>
1

$$$$
