5d1j_ligand
                    3D
 Schrodinger Suite 2020-3.
 50 52  0  0  1  0            999 V2000
   23.9390   29.1800   28.8420 C   0  0  0  0  0  0
   25.2090   31.2470   28.7490 C   0  0  0  0  0  0
   22.6230   28.6020   29.2630 C   0  0  0  0  0  0
   22.7640   27.8860   30.6180 C   0  0  0  0  0  0
   22.0960   27.6270   28.1940 C   0  0  0  0  0  0
   21.4780   27.1700   30.9830 C   0  0  0  0  0  0
   20.8160   26.9570   28.6570 C   0  0  0  0  0  0
   27.8580   27.2070   25.9850 C   0  0  0  0  0  0
   28.5530   26.9030   23.6180 C   0  0  0  0  0  0
   29.4640   31.1860   25.2200 C   0  0  0  0  0  0
   28.4640   30.2590   25.2360 O   0  0  0  0  0  0
   30.6310   30.6670   24.7990 N   0  0  0  0  0  0
   29.0790   32.5230   25.6990 C   0  0  0  0  0  0
   29.0150   29.0800   24.7860 C   0  0  0  0  0  0
   30.3550   29.3460   24.5310 C   0  0  0  0  0  0
   28.9800   32.4080   27.4920 S   0  0  0  0  0  0
   28.0390   27.9160   24.6420 C   0  0  0  0  0  0
   27.2990   32.1840   27.9420 C   0  0  0  0  0  0
   26.6820   28.4330   24.1550 C   0  0  0  0  0  0
   26.6150   30.5810   27.9730 S   0  0  0  0  0  0
   26.4130   33.0580   28.4670 C   0  0  0  0  0  0
   25.2340   32.5380   28.9460 N   0  0  0  0  0  0
   24.1060   30.5060   29.1100 N   0  0  0  0  0  0
   24.7930   28.5090   28.2700 O   0  0  0  0  0  0
   21.1160   26.2300   29.9110 N   0  3  0  0  0  0
   21.9207   29.4425   29.3649 H   0  0  0  0  0  0
   23.5774   27.1478   30.5597 H   0  0  0  0  0  0
   22.9941   28.6240   31.4005 H   0  0  0  0  0  0
   21.8906   28.1781   27.2645 H   0  0  0  0  0  0
   22.8515   26.8512   28.0009 H   0  0  0  0  0  0
   21.6208   26.6160   31.9225 H   0  0  0  0  0  0
   20.6715   27.9071   31.1109 H   0  0  0  0  0  0
   20.0451   27.7215   28.8334 H   0  0  0  0  0  0
   20.4679   26.2570   27.8832 H   0  0  0  0  0  0
   28.8313   26.8346   26.3371 H   0  0  0  0  0  0
   27.1644   26.3620   25.8630 H   0  0  0  0  0  0
   27.4481   27.9145   26.7208 H   0  0  0  0  0  0
   29.5292   26.5149   23.9443 H   0  0  0  0  0  0
   28.6620   27.3938   22.6396 H   0  0  0  0  0  0
   27.8375   26.0718   23.5336 H   0  0  0  0  0  0
   29.8398   33.2557   25.3918 H   0  0  0  0  0  0
   28.1064   32.8013   25.2669 H   0  0  0  0  0  0
   31.0802   28.6159   24.1717 H   0  0  0  0  0  0
   25.9833   27.5895   24.0533 H   0  0  0  0  0  0
   26.8061   28.9260   23.1795 H   0  0  0  0  0  0
   26.2821   29.1547   24.8824 H   0  0  0  0  0  0
   26.6232   34.1267   28.5089 H   0  0  0  0  0  0
   23.3256   31.0601   29.6521 H   0  0  0  0  0  0
   21.9533   25.5399   29.7303 H   0  0  0  0  0  0
   20.2265   25.6566   30.2110 H   0  0  0  0  0  0
  1  3  1  0  0  0
  1 23  1  0  0  0
  1 24  2  0  0  0
  2 20  1  0  0  0
  2 22  2  0  0  0
  2 23  1  0  0  0
  3  4  1  0  0  0
  3  5  1  0  0  0
  3 26  1  0  0  0
  4  6  1  0  0  0
  4 27  1  0  0  0
  4 28  1  0  0  0
  5  7  1  0  0  0
  5 29  1  0  0  0
  5 30  1  0  0  0
  6 25  1  0  0  0
  6 31  1  0  0  0
  6 32  1  0  0  0
  7 25  1  0  0  0
  7 33  1  0  0  0
  7 34  1  0  0  0
  8 17  1  0  0  0
  8 35  1  0  0  0
  8 36  1  0  0  0
  8 37  1  0  0  0
  9 17  1  0  0  0
  9 38  1  0  0  0
  9 39  1  0  0  0
  9 40  1  0  0  0
 10 11  1  0  0  0
 10 12  2  0  0  0
 10 13  1  0  0  0
 11 14  1  0  0  0
 12 15  1  0  0  0
 13 16  1  0  0  0
 13 41  1  0  0  0
 13 42  1  0  0  0
 14 15  2  0  0  0
 14 17  1  0  0  0
 15 43  1  0  0  0
 16 18  1  0  0  0
 17 19  1  0  0  0
 18 20  1  0  0  0
 18 21  2  0  0  0
 19 44  1  0  0  0
 19 45  1  0  0  0
 19 46  1  0  0  0
 21 22  1  0  0  0
 21 47  1  0  0  0
 23 48  1  0  0  0
 25 49  1  0  0  0
 25 50  1  0  0  0
M  CHG  1  25   1
M  END
> <s_m_source_file>
../5d1j_ligand.sdf

> <i_m_source_file_index>
1

> <s_epik_input>
W0NIMl0xW0NIMl1bTkgyK11bQ0gyXVtDSDJdW0NIXTFDKD1PKVtOSF1jMnNjKFtjSF1uMilTW0NIMl1jM29jKFtjSF1uMylDKFtDSDNdKShbQ0gzXSlbQ0gzXQ==

> <s_epik_cmdline>
J2VwaWtfYXBwJywgJy1pbWFlJywgJ2xpZ2FuZF9wcm8ubWFlJywgJy1vbWFlJywgJ2xpZ2FuZF9wcmVwLm1hZScsICctbXMnLCAnMScsICctcGgnLCAnNycsICctcGh0JywgJzAuNScsICctbnQn

> <r_lp_tautomer_probability>
1

> <r_epik_Ionization_Penalty>
  0.0029

> <r_epik_Ionization_Penalty_Charging>
  0.0019

> <r_epik_Ionization_Penalty_Neutral>
  0.0010

> <r_epik_State_Penalty>
 -0.0000

> <r_epik_Charging_Adjusted_Penalty>
0.00190791319461048

> <i_epik_Tot_Q>
1

> <i_epik_Tot_abs_Q>
1

$$$$
