5d1r_ligand
                    3D
 Schrodinger Suite 2020-3.
 47 46  0  0  1  0            999 V2000
  -17.2650   -6.5170  160.5190 C   0  0  0  0  0  0
  -15.8020   -4.0550  164.3030 C   0  0  0  0  0  0
  -16.7730   -3.0880  164.9120 C   0  0  0  0  0  0
  -19.1310  -13.3800  153.0960 C   0  0  0  0  0  0
  -18.3820  -12.7630  154.2080 C   0  0  0  0  0  0
  -17.2420  -11.8630  153.8750 C   0  0  0  0  0  0
  -16.4970  -11.3760  155.0640 C   0  0  0  0  0  0
  -15.8560  -10.0190  154.9900 C   0  0  0  0  0  0
  -16.4550   -8.9620  155.9160 C   0  0  0  0  0  0
  -16.3770   -9.0290  157.4410 C   0  0  0  0  0  0
  -16.9110   -7.8010  158.2080 C   0  0  0  0  0  0
  -17.0670   -7.8330  159.7390 C   0  0  0  0  0  0
  -17.3770   -6.5200  162.0380 C   0  0  0  0  0  0
  -17.2240   -5.2560  162.8590 C   0  0  0  0  0  0
  -18.0500   -4.3550  162.8100 O   0  0  0  0  0  0
  -16.3860   -5.2590  163.9430 O   0  0  0  0  0  0
  -14.5680   -4.2480  165.1300 C   0  0  0  0  0  0
  -16.4167   -5.8443  160.3245 H   0  0  0  0  0  0
  -18.1980   -6.0342  160.1928 H   0  0  0  0  0  0
  -15.5083   -3.6616  163.3186 H   0  0  0  0  0  0
  -17.6528   -2.9915  164.2588 H   0  0  0  0  0  0
  -16.2905   -2.1059  165.0247 H   0  0  0  0  0  0
  -17.0879   -3.4573  165.8991 H   0  0  0  0  0  0
  -19.9352  -14.0116  153.5015 H   0  0  0  0  0  0
  -18.4491  -13.9971  152.4925 H   0  0  0  0  0  0
  -19.5669  -12.5912  152.4653 H   0  0  0  0  0  0
  -19.0639  -12.1459  154.8115 H   0  0  0  0  0  0
  -17.9461  -13.5518  154.8387 H   0  0  0  0  0  0
  -16.5247  -12.4005  153.2374 H   0  0  0  0  0  0
  -17.6174  -10.9785  153.3396 H   0  0  0  0  0  0
  -17.1775  -11.3231  155.9267 H   0  0  0  0  0  0
  -15.6727  -12.0686  155.2892 H   0  0  0  0  0  0
  -14.7921  -10.1010  155.2573 H   0  0  0  0  0  0
  -15.9477   -9.6254  153.9669 H   0  0  0  0  0  0
  -15.9923   -7.9863  155.7064 H   0  0  0  0  0  0
  -17.5398   -8.8975  155.7456 H   0  0  0  0  0  0
  -16.9624   -9.8880  157.8007 H   0  0  0  0  0  0
  -15.3276   -9.1453  157.7497 H   0  0  0  0  0  0
  -16.2450   -6.9428  158.0353 H   0  0  0  0  0  0
  -17.9227   -7.5575  157.8515 H   0  0  0  0  0  0
  -16.1524   -8.3333  160.0901 H   0  0  0  0  0  0
  -17.9322   -8.4916  159.9055 H   0  0  0  0  0  0
  -18.3730   -6.8830  162.3315 H   0  0  0  0  0  0
  -16.6064   -7.1811  162.4612 H   0  0  0  0  0  0
  -14.1433   -3.2670  165.3893 H   0  0  0  0  0  0
  -13.8294   -4.8275  164.5567 H   0  0  0  0  0  0
  -14.8253   -4.7913  166.0512 H   0  0  0  0  0  0
  1 12  1  0  0  0
  1 13  1  0  0  0
  1 18  1  0  0  0
  1 19  1  0  0  0
  2  3  1  0  0  0
  2 16  1  0  0  0
  2 17  1  0  0  0
  2 20  1  0  0  0
  3 21  1  0  0  0
  3 22  1  0  0  0
  3 23  1  0  0  0
  4  5  1  0  0  0
  4 24  1  0  0  0
  4 25  1  0  0  0
  4 26  1  0  0  0
  5  6  1  0  0  0
  5 27  1  0  0  0
  5 28  1  0  0  0
  6  7  1  0  0  0
  6 29  1  0  0  0
  6 30  1  0  0  0
  7  8  1  0  0  0
  7 31  1  0  0  0
  7 32  1  0  0  0
  8  9  1  0  0  0
  8 33  1  0  0  0
  8 34  1  0  0  0
  9 10  1  0  0  0
  9 35  1  0  0  0
  9 36  1  0  0  0
 10 11  1  0  0  0
 10 37  1  0  0  0
 10 38  1  0  0  0
 11 12  1  0  0  0
 11 39  1  0  0  0
 11 40  1  0  0  0
 12 41  1  0  0  0
 12 42  1  0  0  0
 13 14  1  0  0  0
 13 43  1  0  0  0
 13 44  1  0  0  0
 14 15  2  0  0  0
 14 16  1  0  0  0
 17 45  1  0  0  0
 17 46  1  0  0  0
 17 47  1  0  0  0
M  END
> <s_m_source_file>
../5d1r_ligand.sdf

> <i_m_source_file_index>
1

> <s_epik_input>
W0NIM11bQ0hdKFtDSDNdKU9DKD1PKVtDSDJdW0NIMl1bQ0gyXVtDSDJdW0NIMl1bQ0gyXVtDSDJdW0NIMl1bQ0gyXVtDSDJdW0NIM10=

> <s_epik_cmdline>
J2VwaWtfYXBwJywgJy1pbWFlJywgJ2xpZ2FuZF9wcm8ubWFlJywgJy1vbWFlJywgJ2xpZ2FuZF9wcmVwLm1hZScsICctbXMnLCAnMScsICctcGgnLCAnNycsICctcGh0JywgJzAuNScsICctbnQn

> <r_lp_tautomer_probability>
1

> <r_epik_Ionization_Penalty>
  0.0000

> <r_epik_Ionization_Penalty_Charging>
  0.0000

> <r_epik_Ionization_Penalty_Neutral>
  0.0000

> <r_epik_State_Penalty>
 -0.0000

> <r_epik_Charging_Adjusted_Penalty>
0

> <i_epik_Tot_Q>
0

> <i_epik_Tot_abs_Q>
0

> <s_epik_Chemistry_Notes>
This compound has an ester and may undergo hydrolysis at high or low pH.

$$$$
