5d1s_ligand
                    3D
 Schrodinger Suite 2020-3.
 34 34  0  0  1  0            999 V2000
   11.7940   18.8150   26.5780 C   0  0  2  0  0  0
   12.5830   18.9060   27.8900 C   0  0  0  0  0  0
   14.2890   20.2710   28.9340 O   0  0  0  0  0  0
   10.2970   18.8840   26.5350 N   0  0  3  0  0  0
    9.2170   20.8300   27.8560 C   0  0  0  0  0  0
    8.1740   20.3590   28.6740 C   0  0  0  0  0  0
    7.9830   20.9050   29.9490 C   0  0  0  0  0  0
    8.8350   21.9060   30.3910 C   0  0  0  0  0  0
    9.8680   22.3810   29.5890 C   0  0  0  0  0  0
   10.0570   21.8410   28.3230 C   0  0  0  0  0  0
    9.5680   17.6180   26.6050 C   0  0  0  0  0  0
   12.3020   17.5590   25.8640 C   0  0  0  0  0  0
   13.4320   19.9330   27.8980 N   0  0  0  0  0  0
   12.5090   18.1110   28.8310 O   0  0  0  0  0  0
    9.4640   20.2080   26.3860 S   0  0  0  0  0  0
    8.1600   20.0470   25.7780 O   0  0  0  0  0  0
   10.2030   21.1460   25.5830 O   0  0  0  0  0  0
    8.6570   22.4370   31.6070 F   0  0  0  0  0  0
    6.8690   20.4170   30.8580 C   0  0  0  0  0  0
   11.9708   19.7836   26.0875 H   0  0  0  0  0  0
   14.9521   21.1433   28.8369 H   0  0  0  0  0  0
    7.5144   19.5689   28.3152 H   0  0  0  0  0  0
   10.5248   23.1717   29.9517 H   0  0  0  0  0  0
   10.8656   22.2091   27.6916 H   0  0  0  0  0  0
   10.2830   16.7884   26.7075 H   0  0  0  0  0  0
    8.9789   17.4829   25.6860 H   0  0  0  0  0  0
    8.8939   17.6307   27.4742 H   0  0  0  0  0  0
   13.4007   17.5308   25.9088 H   0  0  0  0  0  0
   11.9783   17.5785   24.8129 H   0  0  0  0  0  0
   11.8918   16.6655   26.3575 H   0  0  0  0  0  0
   13.4151   20.5371   26.9789 H   0  0  0  0  0  0
    6.2981   19.6277   30.3470 H   0  0  0  0  0  0
    6.1995   21.2555   31.1001 H   0  0  0  0  0  0
    7.3024   20.0142   31.7853 H   0  0  0  0  0  0
  1  2  1  0  0  0
  1  4  1  0  0  0
  1 12  1  0  0  0
  1 20  1  0  0  0
  2 13  1  0  0  0
  2 14  2  0  0  0
  3 13  1  0  0  0
  3 21  1  0  0  0
  4 11  1  0  0  0
  4 15  1  0  0  0
  5  6  2  0  0  0
  5 10  1  0  0  0
  5 15  1  0  0  0
  6  7  1  0  0  0
  6 22  1  0  0  0
  7  8  2  0  0  0
  7 19  1  0  0  0
  8  9  1  0  0  0
  8 18  1  0  0  0
  9 10  2  0  0  0
  9 23  1  0  0  0
 10 24  1  0  0  0
 11 25  1  0  0  0
 11 26  1  0  0  0
 11 27  1  0  0  0
 12 28  1  0  0  0
 12 29  1  0  0  0
 12 30  1  0  0  0
 13 31  1  0  0  0
 15 16  2  0  0  0
 15 17  2  0  0  0
 19 32  1  0  0  0
 19 33  1  0  0  0
 19 34  1  0  0  0
M  END
> <s_m_source_file>
../5d1s_ligand.sdf

> <i_m_source_file_index>
1

> <s_epik_input>
W09IXVtOSF1DKD1PKVtDQEBIXShbQ0gzXSlOKFtDSDNdKVMoPU8pKD1PKWMxW2NIXWMoW0NIM10pYyhGKVtjSF1bY0hdMQ==

> <s_epik_cmdline>
J2VwaWtfYXBwJywgJy1pbWFlJywgJ2xpZ2FuZF9wcm8ubWFlJywgJy1vbWFlJywgJ2xpZ2FuZF9wcmVwLm1hZScsICctbXMnLCAnMScsICctcGgnLCAnNycsICctcGh0JywgJzAuNScsICctbnQn

> <r_epik_Ionization_Penalty>
  0.0156

> <r_epik_Ionization_Penalty_Charging>
  0.0000

> <r_epik_Ionization_Penalty_Neutral>
  0.0156

> <r_epik_State_Penalty>
  0.0123

> <r_epik_Charging_Adjusted_Penalty>
0.0122761872453761

> <i_epik_Tot_Q>
0

> <i_epik_Tot_abs_Q>
0

> <s_epik_Chemistry_Notes>
This compound has a N-S or N-O group and may undergo hydrolysis at high or low pH.

$$$$
