5d1t_ligand
                    3D
 Schrodinger Suite 2020-3.
 50 51  0  0  1  0            999 V2000
   11.4710   18.8200   26.5280 C   0  0  2  0  0  0
   12.2300   19.0300   27.8390 C   0  0  0  0  0  0
    8.4850   16.5590   21.8970 C   0  0  0  0  0  0
   13.9000   20.3050   28.9490 O   0  0  0  0  0  0
    9.9800   18.8540   26.5370 N   0  0  3  0  0  0
    8.8960   20.7780   27.8540 C   0  0  0  0  0  0
    7.9220   20.3000   28.7340 C   0  0  0  0  0  0
    7.7960   20.8600   30.0020 C   0  0  0  0  0  0
    8.6400   21.8860   30.3850 C   0  0  0  0  0  0
    9.6130   22.3610   29.5100 C   0  0  0  0  0  0
    9.7450   21.8070   28.2450 C   0  0  0  0  0  0
    8.5080   17.0260   25.6620 C   0  0  0  0  0  0
    7.2210   16.6090   25.9940 C   0  0  0  0  0  0
    6.3420   16.1770   25.0030 C   0  0  0  0  0  0
    6.7560   16.1590   23.6750 C   0  0  0  0  0  0
    8.9190   17.0120   24.3320 C   0  0  0  0  0  0
    8.0450   16.5760   23.3420 C   0  0  0  0  0  0
    9.4400   17.5040   26.7540 C   0  0  0  0  0  0
   12.0050   17.5030   25.9760 C   0  0  0  0  0  0
   13.1100   20.0350   27.8300 N   0  0  0  0  0  0
   12.0990   18.3120   28.8360 O   0  0  0  0  0  0
    9.0790   20.1510   26.3890 S   0  0  0  0  0  0
    7.7850   19.9280   25.7960 O   0  0  0  0  0  0
    9.7000   21.1750   25.6010 O   0  0  0  0  0  0
    8.5220   22.4430   31.6060 F   0  0  0  0  0  0
    6.7400   20.3570   30.9580 C   0  0  0  0  0  0
    7.4680   17.3120   21.1170 N   0  3  0  0  0  0
   11.6342   19.7046   25.8949 H   0  0  0  0  0  0
    9.4716   17.0373   21.8085 H   0  0  0  0  0  0
    8.5490   15.5187   21.5454 H   0  0  0  0  0  0
   14.6202   21.1361   28.9262 H   0  0  0  0  0  0
    7.2612   19.4890   28.4278 H   0  0  0  0  0  0
   10.2734   23.1709   29.8199 H   0  0  0  0  0  0
   10.5098   22.1763   27.5618 H   0  0  0  0  0  0
    6.8996   16.6207   27.0355 H   0  0  0  0  0  0
    5.3348   15.8547   25.2670 H   0  0  0  0  0  0
    6.0740   15.8194   22.8955 H   0  0  0  0  0  0
    9.9235   17.3420   24.0672 H   0  0  0  0  0  0
   10.2684   16.7824   26.8101 H   0  0  0  0  0  0
    8.8715   17.4834   27.6955 H   0  0  0  0  0  0
   13.1048   17.5199   25.9870 H   0  0  0  0  0  0
   11.6507   17.3677   24.9435 H   0  0  0  0  0  0
   11.6448   16.6713   26.5993 H   0  0  0  0  0  0
   13.2078   20.6534   26.9256 H   0  0  0  0  0  0
    6.1703   19.5457   30.4812 H   0  0  0  0  0  0
    6.0583   21.1804   31.2176 H   0  0  0  0  0  0
    7.2225   19.9787   31.8713 H   0  0  0  0  0  0
    7.7542   17.3221   20.0549 H   0  0  0  0  0  0
    7.4100   18.3448   21.4910 H   0  0  0  0  0  0
    6.4873   16.8262   21.2279 H   0  0  0  0  0  0
  1  2  1  0  0  0
  1  5  1  0  0  0
  1 19  1  0  0  0
  1 28  1  0  0  0
  2 20  1  0  0  0
  2 21  2  0  0  0
  3 17  1  0  0  0
  3 27  1  0  0  0
  3 29  1  0  0  0
  3 30  1  0  0  0
  4 20  1  0  0  0
  4 31  1  0  0  0
  5 18  1  0  0  0
  5 22  1  0  0  0
  6  7  2  0  0  0
  6 11  1  0  0  0
  6 22  1  0  0  0
  7  8  1  0  0  0
  7 32  1  0  0  0
  8  9  2  0  0  0
  8 26  1  0  0  0
  9 10  1  0  0  0
  9 25  1  0  0  0
 10 11  2  0  0  0
 10 33  1  0  0  0
 11 34  1  0  0  0
 12 13  2  0  0  0
 12 16  1  0  0  0
 12 18  1  0  0  0
 13 14  1  0  0  0
 13 35  1  0  0  0
 14 15  2  0  0  0
 14 36  1  0  0  0
 15 17  1  0  0  0
 15 37  1  0  0  0
 16 17  2  0  0  0
 16 38  1  0  0  0
 18 39  1  0  0  0
 18 40  1  0  0  0
 19 41  1  0  0  0
 19 42  1  0  0  0
 19 43  1  0  0  0
 20 44  1  0  0  0
 22 23  2  0  0  0
 22 24  2  0  0  0
 26 45  1  0  0  0
 26 46  1  0  0  0
 26 47  1  0  0  0
 27 48  1  0  0  0
 27 49  1  0  0  0
 27 50  1  0  0  0
M  CHG  1  27   1
M  END
> <s_m_source_file>
../5d1t_ligand.sdf

> <i_m_source_file_index>
1

> <s_epik_input>
W2NIXTFbY0hdYyhGKWMoW0NIM10pW2NIXWMxUyg9TykoPU8pTihbQ0BIXShbQ0gzXSlDKD1PKVtOSF1bT0hdKVtDSDJdYzJbY0hdW2NIXVtjSF1jKFtjSF0yKVtDSDJdW05IMytd

> <s_epik_cmdline>
J2VwaWtfYXBwJywgJy1pbWFlJywgJ2xpZ2FuZF9wcm8ubWFlJywgJy1vbWFlJywgJ2xpZ2FuZF9wcmVwLm1hZScsICctbXMnLCAnMScsICctcGgnLCAnNycsICctcGh0JywgJzAuNScsICctbnQn

> <r_lp_tautomer_probability>
1

> <r_epik_Ionization_Penalty>
  0.0452

> <r_epik_Ionization_Penalty_Charging>
  0.0274

> <r_epik_Ionization_Penalty_Neutral>
  0.0178

> <r_epik_State_Penalty>
 -0.0000

> <r_epik_Charging_Adjusted_Penalty>
0.0273928623401303

> <i_epik_Tot_Q>
1

> <i_epik_Tot_abs_Q>
1

> <s_epik_Chemistry_Notes>
This compound has a N-S or N-O group and may undergo hydrolysis at high or low pH.

$$$$
