5d1u_ligand
                    3D
 Schrodinger Suite 2020-3.
 40 40  0  0  1  0            999 V2000
   11.8430   19.1530   26.6200 C   0  0  2  0  0  0
   12.5380   19.1850   27.9720 C   0  0  0  0  0  0
    9.0860   15.5470   25.6760 C   0  0  0  0  0  0
   14.3120   20.0030   29.2590 O   0  0  0  0  0  0
   10.3630   19.0300   26.5930 N   0  0  3  0  0  0
    9.1660   20.8480   27.9620 C   0  0  0  0  0  0
    8.1570   20.3560   28.7880 C   0  0  0  0  0  0
    7.9990   20.8760   30.0620 C   0  0  0  0  0  0
    8.8360   21.8760   30.5150 C   0  0  0  0  0  0
    9.8410   22.3750   29.7000 C   0  0  0  0  0  0
   10.0100   21.8550   28.4260 C   0  0  0  0  0  0
    9.3030   17.0450   25.4880 C   0  0  0  0  0  0
    9.9400   17.6290   26.7440 C   0  0  0  0  0  0
   12.5230   18.0080   25.8620 C   0  0  0  0  0  0
   13.5520   20.0360   28.0920 N   0  0  0  0  0  0
   12.2610   18.4230   28.8880 O   0  0  0  0  0  0
    9.3860   20.2550   26.4840 S   0  0  0  0  0  0
    8.0860   19.9670   25.8980 O   0  0  0  0  0  0
    9.9840   21.3100   25.7040 O   0  0  0  0  0  0
    8.6690   22.3710   31.7550 F   0  0  0  0  0  0
    6.9110   20.3500   30.9600 C   0  0  0  0  0  0
   11.9277   20.1499   26.1627 H   0  0  0  0  0  0
    8.6264   15.1265   24.7694 H   0  0  0  0  0  0
    8.4216   15.3779   26.5362 H   0  0  0  0  0  0
   10.0535   15.0564   25.8580 H   0  0  0  0  0  0
   15.1569   20.6960   29.3849 H   0  0  0  0  0  0
    7.4954   19.5658   28.4331 H   0  0  0  0  0  0
   10.4938   23.1708   30.0587 H   0  0  0  0  0  0
   10.8056   22.2351   27.7852 H   0  0  0  0  0  0
    9.9674   17.2141   24.6278 H   0  0  0  0  0  0
    8.3355   17.5357   25.3060 H   0  0  0  0  0  0
   10.8133   17.0067   26.9890 H   0  0  0  0  0  0
    9.1985   17.5550   27.5531 H   0  0  0  0  0  0
   13.6146   18.1364   25.9061 H   0  0  0  0  0  0
   12.1948   18.0174   24.8122 H   0  0  0  0  0  0
   12.2478   17.0482   26.3236 H   0  0  0  0  0  0
   13.7968   20.7551   27.2964 H   0  0  0  0  0  0
    6.3497   19.5637   30.4340 H   0  0  0  0  0  0
    6.2290   21.1701   31.2288 H   0  0  0  0  0  0
    7.3595   19.9319   31.8732 H   0  0  0  0  0  0
  1  2  1  0  0  0
  1  5  1  0  0  0
  1 14  1  0  0  0
  1 22  1  0  0  0
  2 15  1  0  0  0
  2 16  2  0  0  0
  3 12  1  0  0  0
  3 23  1  0  0  0
  3 24  1  0  0  0
  3 25  1  0  0  0
  4 15  1  0  0  0
  4 26  1  0  0  0
  5 13  1  0  0  0
  5 17  1  0  0  0
  6  7  2  0  0  0
  6 11  1  0  0  0
  6 17  1  0  0  0
  7  8  1  0  0  0
  7 27  1  0  0  0
  8  9  2  0  0  0
  8 21  1  0  0  0
  9 10  1  0  0  0
  9 20  1  0  0  0
 10 11  2  0  0  0
 10 28  1  0  0  0
 11 29  1  0  0  0
 12 13  1  0  0  0
 12 30  1  0  0  0
 12 31  1  0  0  0
 13 32  1  0  0  0
 13 33  1  0  0  0
 14 34  1  0  0  0
 14 35  1  0  0  0
 14 36  1  0  0  0
 15 37  1  0  0  0
 17 18  2  0  0  0
 17 19  2  0  0  0
 21 38  1  0  0  0
 21 39  1  0  0  0
 21 40  1  0  0  0
M  END
> <s_m_source_file>
../5d1u_ligand.sdf

> <i_m_source_file_index>
1

> <s_epik_input>
W09IXVtOSF1DKD1PKVtDQEBIXShbQ0gzXSlOKFtDSDJdW0NIMl1bQ0gzXSlTKD1PKSg9TyljMVtjSF1jKFtDSDNdKWMoRilbY0hdW2NIXTE=

> <s_epik_cmdline>
J2VwaWtfYXBwJywgJy1pbWFlJywgJ2xpZ2FuZF9wcm8ubWFlJywgJy1vbWFlJywgJ2xpZ2FuZF9wcmVwLm1hZScsICctbXMnLCAnMScsICctcGgnLCAnNycsICctcGh0JywgJzAuNScsICctbnQn

> <r_epik_Ionization_Penalty>
  0.0155

> <r_epik_Ionization_Penalty_Charging>
  0.0000

> <r_epik_Ionization_Penalty_Neutral>
  0.0155

> <r_epik_State_Penalty>
  0.0122

> <r_epik_Charging_Adjusted_Penalty>
0.0121521084508932

> <i_epik_Tot_Q>
0

> <i_epik_Tot_abs_Q>
0

> <s_epik_Chemistry_Notes>
This compound has a N-S or N-O group and may undergo hydrolysis at high or low pH.

$$$$
