5d1w_ligand
                    3D
 Schrodinger Suite 2020-3.
 49 48  0  0  1  0            999 V2000
   44.2240  -38.3840   15.9140 C   0  0  0  0  0  0
   44.0300  -38.1860   17.1560 O   0  0  0  0  0  0
   43.7900  -39.4750   15.3980 O   0  5  0  0  0  0
   44.9660  -37.3400   15.0940 C   0  0  0  0  0  0
   44.2160  -36.2790   14.3470 C   0  0  0  0  0  0
   45.0120  -35.4060   13.4410 C   0  0  0  0  0  0
   44.7780  -35.5270   11.9790 C   0  0  0  0  0  0
   45.2680  -34.4140   11.1260 C   0  0  0  0  0  0
   44.5620  -34.1690    9.8330 C   0  0  0  0  0  0
   45.2150  -33.2090    8.8990 C   0  0  0  0  0  0
   44.4590  -32.0730    8.3050 C   0  0  0  0  0  0
   45.2300  -31.0440    7.5480 C   0  0  0  0  0  0
   44.7150  -29.6560    7.6540 C   0  0  0  0  0  0
   45.3220  -28.5660    6.8310 C   0  0  0  0  0  0
   44.5810  -27.2600    6.7560 C   0  0  0  0  0  0
   45.0910  -26.0770    5.9740 C   0  0  0  0  0  0
   44.2310  -24.8240    5.9230 C   0  0  0  0  0  0
   44.2220  -23.9330    4.7020 C   0  0  0  0  0  0
   45.6382  -36.7680   15.7505 H   0  0  0  0  0  0
   45.5556  -37.8397   14.3113 H   0  0  0  0  0  0
   43.4514  -36.7492   13.7111 H   0  0  0  0  0  0
   43.7302  -35.6001   15.0633 H   0  0  0  0  0  0
   44.8103  -34.3509   13.6779 H   0  0  0  0  0  0
   46.0832  -35.6144   13.5788 H   0  0  0  0  0  0
   45.2767  -36.4319   11.6015 H   0  0  0  0  0  0
   43.6974  -35.5959   11.7851 H   0  0  0  0  0  0
   45.1931  -33.4668   11.6803 H   0  0  0  0  0  0
   46.3176  -34.5965   10.8522 H   0  0  0  0  0  0
   44.4703  -35.1156    9.2802 H   0  0  0  0  0  0
   43.5596  -33.7630   10.0337 H   0  0  0  0  0  0
   46.0546  -32.7145    9.4094 H   0  0  0  0  0  0
   45.5895  -33.7514    8.0183 H   0  0  0  0  0  0
   43.7172  -32.4598    7.5908 H   0  0  0  0  0  0
   43.9446  -31.5176    9.1031 H   0  0  0  0  0  0
   46.2669  -31.0197    7.9144 H   0  0  0  0  0  0
   45.2253  -31.2964    6.4774 H   0  0  0  0  0  0
   43.6512  -29.6373    7.3747 H   0  0  0  0  0  0
   44.8287  -29.3007    8.6888 H   0  0  0  0  0  0
   46.3155  -28.3147    7.2308 H   0  0  0  0  0  0
   45.4210  -28.9049    5.7892 H   0  0  0  0  0  0
   43.5877  -27.4269    6.3139 H   0  0  0  0  0  0
   44.4667  -26.8446    7.7681 H   0  0  0  0  0  0
   46.0511  -25.7450    6.3959 H   0  0  0  0  0  0
   45.2331  -26.3664    4.9223 H   0  0  0  0  0  0
   43.1732  -25.1001    6.0448 H   0  0  0  0  0  0
   44.5277  -24.1423    6.7337 H   0  0  0  0  0  0
   43.5387  -23.0875    4.8701 H   0  0  0  0  0  0
   43.8831  -24.5104    3.8292 H   0  0  0  0  0  0
   45.2377  -23.5527    4.5181 H   0  0  0  0  0  0
  1  2  2  0  0  0
  1  3  1  0  0  0
  1  4  1  0  0  0
  4  5  1  0  0  0
  4 19  1  0  0  0
  4 20  1  0  0  0
  5  6  1  0  0  0
  5 21  1  0  0  0
  5 22  1  0  0  0
  6  7  1  0  0  0
  6 23  1  0  0  0
  6 24  1  0  0  0
  7  8  1  0  0  0
  7 25  1  0  0  0
  7 26  1  0  0  0
  8  9  1  0  0  0
  8 27  1  0  0  0
  8 28  1  0  0  0
  9 10  1  0  0  0
  9 29  1  0  0  0
  9 30  1  0  0  0
 10 11  1  0  0  0
 10 31  1  0  0  0
 10 32  1  0  0  0
 11 12  1  0  0  0
 11 33  1  0  0  0
 11 34  1  0  0  0
 12 13  1  0  0  0
 12 35  1  0  0  0
 12 36  1  0  0  0
 13 14  1  0  0  0
 13 37  1  0  0  0
 13 38  1  0  0  0
 14 15  1  0  0  0
 14 39  1  0  0  0
 14 40  1  0  0  0
 15 16  1  0  0  0
 15 41  1  0  0  0
 15 42  1  0  0  0
 16 17  1  0  0  0
 16 43  1  0  0  0
 16 44  1  0  0  0
 17 18  1  0  0  0
 17 45  1  0  0  0
 17 46  1  0  0  0
 18 47  1  0  0  0
 18 48  1  0  0  0
 18 49  1  0  0  0
M  CHG  1   3  -1
M  END
> <s_m_source_file>
../5d1w_ligand.sdf

> <i_m_source_file_index>
1

> <s_epik_input>
Tz1DKFtPSF0pW0NIMl1bQ0gyXVtDSDJdW0NIMl1bQ0gyXVtDSDJdW0NIMl1bQ0gyXVtDSDJdW0NIMl1bQ0gyXVtDSDJdW0NIMl1bQ0gyXVtDSDNd

> <s_epik_cmdline>
J2VwaWtfYXBwJywgJy1pbWFlJywgJ2xpZ2FuZF9wcm8ubWFlJywgJy1vbWFlJywgJ2xpZ2FuZF9wcmVwLm1hZScsICctbXMnLCAnMScsICctcGgnLCAnNycsICctcGh0JywgJzAuNScsICctbnQn

> <r_lp_tautomer_probability>
1

> <r_epik_Ionization_Penalty>
  0.0049

> <r_epik_Ionization_Penalty_Charging>
  0.0049

> <r_epik_Ionization_Penalty_Neutral>
  0.0000

> <r_epik_State_Penalty>
 -0.0000

> <r_epik_Charging_Adjusted_Penalty>
0.00486649495677768

> <i_epik_Tot_Q>
-1

> <i_epik_Tot_abs_Q>
1

$$$$
