5d21_ligand
                    3D
 Schrodinger Suite 2020-3.
 34 35  0  0  1  0            999 V2000
    1.9990  -16.8250  -51.2290 O   0  0  0  0  0  0
    2.3080  -18.5370  -48.9210 O   0  0  0  0  0  0
    0.5350  -17.4880  -47.2860 O   0  0  0  0  0  0
   -1.1960  -16.5580  -49.5460 O   0  0  0  0  0  0
   -0.3180  -16.5630  -50.6520 C   0  0  2  0  0  0
    1.0800  -16.8640  -50.1480 C   0  0  1  0  0  0
    1.0500  -18.2250  -49.4860 C   0  0  2  0  0  0
    0.0260  -18.2540  -48.3710 C   0  0  2  0  0  0
   -1.3330  -17.7820  -48.8660 C   0  0  1  0  0  0
   -2.3240  -17.6340  -47.7320 C   0  0  0  0  0  0
   -3.5920  -17.2960  -48.2630 O   0  0  0  0  0  0
   -0.3100  -15.3100  -51.2720 O   0  0  0  0  0  0
   -1.3440  -15.1390  -52.2100 C   0  0  0  0  0  0
   -2.2250  -16.1630  -52.5630 C   0  0  0  0  0  0
   -3.2210  -15.9190  -53.4980 C   0  0  0  0  0  0
   -3.3310  -14.6550  -54.0730 C   0  0  0  0  0  0
   -2.4550  -13.6420  -53.7180 C   0  0  0  0  0  0
   -1.4620  -13.8850  -52.7870 C   0  0  0  0  0  0
    2.1293  -15.8982  -51.8069 H   0  0  0  0  0  0
    3.2037  -18.5723  -49.5585 H   0  0  0  0  0  0
    1.5115  -17.7388  -46.8460 H   0  0  0  0  0  0
   -0.7118  -17.2768  -51.3905 H   0  0  0  0  0  0
    1.4615  -16.0987  -49.4561 H   0  0  0  0  0  0
    0.8518  -18.9908  -50.2503 H   0  0  0  0  0  0
   -0.1124  -19.2621  -47.9533 H   0  0  0  0  0  0
   -1.7292  -18.4881  -49.6106 H   0  0  0  0  0  0
   -2.3956  -18.5836  -47.1814 H   0  0  0  0  0  0
   -1.9855  -16.8396  -47.0505 H   0  0  0  0  0  0
   -4.4481  -17.1452  -47.5890 H   0  0  0  0  0  0
   -2.1310  -17.1485  -52.1068 H   0  0  0  0  0  0
   -3.9133  -16.7119  -53.7809 H   0  0  0  0  0  0
   -4.1123  -14.4614  -54.8079 H   0  0  0  0  0  0
   -2.5484  -12.6554  -54.1718 H   0  0  0  0  0  0
   -0.7716  -13.0894  -52.5069 H   0  0  0  0  0  0
  1  6  1  0  0  0
  1 19  1  0  0  0
  2  7  1  0  0  0
  2 20  1  0  0  0
  3  8  1  0  0  0
  3 21  1  0  0  0
  4  5  1  0  0  0
  4  9  1  0  0  0
  5  6  1  0  0  0
  5 12  1  0  0  0
  5 22  1  0  0  0
  6  7  1  0  0  0
  6 23  1  0  0  0
  7  8  1  0  0  0
  7 24  1  0  0  0
  8  9  1  0  0  0
  8 25  1  0  0  0
  9 10  1  0  0  0
  9 26  1  0  0  0
 10 11  1  0  0  0
 10 27  1  0  0  0
 10 28  1  0  0  0
 11 29  1  0  0  0
 12 13  1  0  0  0
 13 14  2  0  0  0
 13 18  1  0  0  0
 14 15  1  0  0  0
 14 30  1  0  0  0
 15 16  2  0  0  0
 15 31  1  0  0  0
 16 17  1  0  0  0
 16 32  1  0  0  0
 17 18  2  0  0  0
 17 33  1  0  0  0
 18 34  1  0  0  0
M  END
> <s_m_source_file>
../5d21_ligand.sdf

> <i_m_source_file_index>
1

> <s_epik_input>
W09IXVtDQEBIXTFbQ0BASF0oW09IXSlbQ0BASF0oW09IXSlbQ0BASF0oW0NIMl1bT0hdKU9bQ0BIXTFPYzJbY0hdW2NIXVtjSF1bY0hdW2NIXTI=

> <s_epik_cmdline>
J2VwaWtfYXBwJywgJy1pbWFlJywgJ2xpZ2FuZF9wcm8ubWFlJywgJy1vbWFlJywgJ2xpZ2FuZF9wcmVwLm1hZScsICctbXMnLCAnMScsICctcGgnLCAnNycsICctcGh0JywgJzAuNScsICctbnQn

> <r_lp_tautomer_probability>
1

> <r_epik_Ionization_Penalty>
  0.0000

> <r_epik_Ionization_Penalty_Charging>
  0.0000

> <r_epik_Ionization_Penalty_Neutral>
  0.0000

> <r_epik_State_Penalty>
 -0.0000

> <r_epik_Charging_Adjusted_Penalty>
0

> <i_epik_Tot_Q>
0

> <i_epik_Tot_abs_Q>
0

> <s_epik_Chemistry_Notes>
This compound contains an acetal/aminal-like group ( X-CH(R)-Y where X, Y are N, S, or O) that may be acid/base labile, releasing an aldehyde.

$$$$
