5d6p_ligand
                    3D
 Schrodinger Suite 2020-3.
 31 32  0  0  1  0            999 V2000
   -7.2670    5.0270    0.3990 C   0  0  0  0  0  0
   -5.2830    3.7270    1.1620 C   0  0  0  0  0  0
   -4.0380    3.2240    1.8240 C   0  0  0  0  0  0
   -3.4960    3.8540    2.9360 C   0  0  0  0  0  0
   -2.3900    3.0870    3.2410 C   0  0  0  0  0  0
   -2.3200    2.0330    2.3210 C   0  0  0  0  0  0
   -3.3590    2.1220    1.4620 N   0  0  0  0  0  0
   -6.1080    3.0380    0.1290 C   0  0  0  0  0  0
   -8.7360    6.8420    1.0960 C   0  0  0  0  0  0
   -5.8360    1.6850   -0.4650 C   0  0  0  0  0  0
   -8.0900    7.1710    2.1010 O   0  0  0  0  0  0
   -9.8800    7.4710    0.8470 N   0  0  0  0  0  0
  -10.4980    8.5760    1.5660 C   0  0  0  0  0  0
  -11.9980    8.4010    1.5190 C   0  0  0  0  0  0
   -8.3560    5.8800    0.2080 N   0  0  0  0  0  0
   -5.9900    5.2490    1.5420 S   0  0  0  0  0  0
   -7.1930    3.8170   -0.2300 N   0  0  0  0  0  0
   -4.5740    1.6900   -1.1310 O   0  0  0  0  0  0
   -3.9762    4.7545    3.3465 H   0  0  0  0  0  0
   -1.6912    3.2699    4.0573 H   0  0  0  0  0  0
   -1.5909    1.2157    2.2194 H   0  0  0  0  0  0
   -5.8205    0.9299    0.3347 H   0  0  0  0  0  0
   -6.6264    1.4366   -1.1886 H   0  0  0  0  0  0
  -10.3749    7.0457   -0.0386 H   0  0  0  0  0  0
  -10.1526    8.5727    2.6104 H   0  0  0  0  0  0
  -10.2163    9.5267    1.0897 H   0  0  0  0  0  0
  -12.4808    9.2291    2.0586 H   0  0  0  0  0  0
  -12.2708    7.4463    1.9925 H   0  0  0  0  0  0
  -12.3344    8.4002    0.4717 H   0  0  0  0  0  0
   -8.9659    5.7976   -0.7037 H   0  0  0  0  0  0
   -4.2102    0.7780   -1.6269 H   0  0  0  0  0  0
  1 15  1  0  0  0
  1 16  1  0  0  0
  1 17  2  0  0  0
  2  3  1  0  0  0
  2  8  2  0  0  0
  2 16  1  0  0  0
  3  4  2  0  0  0
  3  7  1  0  0  0
  4  5  1  0  0  0
  4 19  1  0  0  0
  5  6  1  0  0  0
  5 20  1  0  0  0
  6  7  2  0  0  0
  6 21  1  0  0  0
  8 10  1  0  0  0
  8 17  1  0  0  0
  9 11  2  0  0  0
  9 12  1  0  0  0
  9 15  1  0  0  0
 10 18  1  0  0  0
 10 22  1  0  0  0
 10 23  1  0  0  0
 12 13  1  0  0  0
 12 24  1  0  0  0
 13 14  1  0  0  0
 13 25  1  0  0  0
 13 26  1  0  0  0
 14 27  1  0  0  0
 14 28  1  0  0  0
 14 29  1  0  0  0
 15 30  1  0  0  0
 18 31  1  0  0  0
M  END
> <s_m_source_file>
../5d6p_ligand.sdf

> <i_m_source_file_index>
1

> <s_epik_input>
W0NIM11bQ0gyXVtOSF1DKD1PKVtOSF1jMXNjKGMobjEpW0NIMl1bT0hdKUMyPVtDSF1bQ0gyXVtDSF09TjI=

> <s_epik_cmdline>
J2VwaWtfYXBwJywgJy1pbWFlJywgJ2xpZ2FuZF9wcm8ubWFlJywgJy1vbWFlJywgJ2xpZ2FuZF9wcmVwLm1hZScsICctbXMnLCAnMScsICctcGgnLCAnNycsICctcGh0JywgJzAuNScsICctbnQn

> <r_lp_tautomer_probability>
1

> <r_epik_Ionization_Penalty>
  0.0001

> <r_epik_Ionization_Penalty_Charging>
  0.0000

> <r_epik_Ionization_Penalty_Neutral>
  0.0001

> <r_epik_State_Penalty>
 -0.0000

> <r_epik_Charging_Adjusted_Penalty>
0

> <i_epik_Tot_Q>
0

> <i_epik_Tot_abs_Q>
0

> <s_epik_Chemistry_Notes>
This compound has an imine and may undergo hydrolysis.

$$$$
