5d6q_ligand
                    3D
 Schrodinger Suite 2020-3.
 40 42  0  0  1  0            999 V2000
  -15.5230  -16.2070  -30.2150 O   0  0  0  0  0  0
  -19.3630  -16.3090  -31.2610 C   0  0  0  0  0  0
   -9.4040  -21.4410  -32.8900 C   0  0  0  0  0  0
  -10.6390  -20.5610  -32.5860 C   0  0  0  0  0  0
  -10.4050  -19.4550  -31.8630 C   0  0  0  0  0  0
  -11.5170  -18.5640  -31.4360 C   0  0  0  0  0  0
  -13.6470  -17.7300  -31.4340 C   0  0  0  0  0  0
  -15.8210  -16.8210  -31.2300 C   0  0  0  0  0  0
  -17.9720  -15.6220  -31.3870 C   0  0  0  0  0  0
  -16.9330  -16.6010  -31.8450 N   0  0  0  0  0  0
   -8.0760  -20.9890  -32.7320 C   0  0  0  0  0  0
   -7.0430  -21.9180  -32.9890 C   0  0  0  0  0  0
  -10.1730  -17.2360  -29.5800 C   0  0  0  0  0  0
  -14.9560  -17.6600  -31.8730 N   0  0  0  0  0  0
  -11.3620  -17.5300  -30.3910 C   0  0  0  0  0  0
   -9.6510  -22.7410  -33.2760 C   0  0  0  0  0  0
   -7.4140  -23.1880  -33.4090 C   0  0  0  0  0  0
  -12.9330  -16.7850  -30.1970 S   0  0  0  0  0  0
   -9.9260  -16.0040  -29.1150 N   0  0  0  0  0  0
   -8.7600  -16.0950  -28.3990 C   0  0  0  0  0  0
   -8.3370  -17.3890  -28.3790 C   0  0  0  0  0  0
   -9.2620  -18.1460  -29.0690 C   0  0  0  0  0  0
  -12.8140  -18.6680  -32.0040 N   0  0  0  0  0  0
   -8.6800  -23.5720  -33.5770 N   0  0  0  0  0  0
  -20.1068  -15.5719  -30.9243 H   0  0  0  0  0  0
  -19.3022  -17.1288  -30.5300 H   0  0  0  0  0  0
  -19.6630  -16.7118  -32.2396 H   0  0  0  0  0  0
  -11.6604  -20.7921  -32.9227 H   0  0  0  0  0  0
   -9.3760  -19.1933  -31.5755 H   0  0  0  0  0  0
  -18.0328  -14.8022  -32.1180 H   0  0  0  0  0  0
  -17.6720  -15.2191  -30.4084 H   0  0  0  0  0  0
  -17.0959  -17.1875  -32.7612 H   0  0  0  0  0  0
   -7.8568  -19.9664  -32.4247 H   0  0  0  0  0  0
   -5.9947  -21.6478  -32.8623 H   0  0  0  0  0  0
  -15.2838  -18.2732  -32.7254 H   0  0  0  0  0  0
  -10.6823  -23.0892  -33.3330 H   0  0  0  0  0  0
   -6.6257  -23.9126  -33.6131 H   0  0  0  0  0  0
   -8.2500  -15.2595  -27.9194 H   0  0  0  0  0  0
   -7.4525  -17.8705  -27.9364 H   0  0  0  0  0  0
   -9.1563  -19.2401  -29.1104 H   0  0  0  0  0  0
  1  8  2  0  0  0
  2  9  1  0  0  0
  2 25  1  0  0  0
  2 26  1  0  0  0
  2 27  1  0  0  0
  3  4  1  0  0  0
  3 11  2  0  0  0
  3 16  1  0  0  0
  4  5  2  0  0  0
  4 28  1  0  0  0
  5  6  1  0  0  0
  5 29  1  0  0  0
  6 15  2  0  0  0
  6 23  1  0  0  0
  7 14  1  0  0  0
  7 18  1  0  0  0
  7 23  2  0  0  0
  8 10  1  0  0  0
  8 14  1  0  0  0
  9 10  1  0  0  0
  9 30  1  0  0  0
  9 31  1  0  0  0
 10 32  1  0  0  0
 11 12  1  0  0  0
 11 33  1  0  0  0
 12 17  2  0  0  0
 12 34  1  0  0  0
 13 15  1  0  0  0
 13 19  2  0  0  0
 13 22  1  0  0  0
 14 35  1  0  0  0
 15 18  1  0  0  0
 16 24  2  0  0  0
 16 36  1  0  0  0
 17 24  1  0  0  0
 17 37  1  0  0  0
 19 20  1  0  0  0
 20 21  1  0  0  0
 20 38  1  0  0  0
 21 22  2  0  0  0
 21 39  1  0  0  0
 22 40  1  0  0  0
M  END
> <s_m_source_file>
../5d6q_ligand.sdf

> <i_m_source_file_index>
1

> <s_epik_input>
W0NIM11bQ0gyXVtOSF1DKD1PKVtOSF1jKG4xKXNjKEMyPU5bQ0gyXVtDSF09W0NIXTIpYzFcW0NIXT1bQ0hdXGMzW2NIXVtjSF1bY0hdbltjSF0z

> <s_epik_cmdline>
J2VwaWtfYXBwJywgJy1pbWFlJywgJ2xpZ2FuZF9wcm8ubWFlJywgJy1vbWFlJywgJ2xpZ2FuZF9wcmVwLm1hZScsICctbXMnLCAnMScsICctcGgnLCAnNycsICctcGh0JywgJzAuNScsICctbnQn

> <r_lp_tautomer_probability>
1

> <r_epik_Ionization_Penalty>
  0.0013

> <r_epik_Ionization_Penalty_Charging>
  0.0000

> <r_epik_Ionization_Penalty_Neutral>
  0.0013

> <r_epik_State_Penalty>
 -0.0000

> <r_epik_Charging_Adjusted_Penalty>
0

> <i_epik_Tot_Q>
0

> <i_epik_Tot_abs_Q>
0

> <s_epik_Chemistry_Notes>
This compound has an imine and may undergo hydrolysis.

$$$$
