5d7c_ligand
                    3D
 Schrodinger Suite 2020-3.
 45 48  0  0  1  0            999 V2000
    7.8860    7.5210   -2.6730 O   0  0  0  0  0  0
   11.7710    8.2120   -1.5600 C   0  0  0  0  0  0
    5.8440    2.2110    0.1060 C   0  0  0  0  0  0
    5.9680    4.1810   -0.9080 C   0  0  0  0  0  0
    4.6230    4.0480   -1.4890 C   0  0  0  0  0  0
    5.4800    6.0590   -2.1760 C   0  0  0  0  0  0
    6.4320    5.5240   -1.3770 C   0  0  0  0  0  0
    8.3830    6.9030   -1.7600 C   0  0  0  0  0  0
   10.3180    8.3900   -1.8710 C   0  0  0  0  0  0
    9.6270    7.1960   -1.3370 N   0  0  0  0  0  0
    4.5840    1.9530   -0.4150 C   0  0  0  0  0  0
    3.9850    2.8750   -1.1590 C   0  0  0  0  0  0
    2.0040   -0.6630    0.4070 C   0  0  0  0  0  0
    7.7350    5.9110   -1.0440 N   0  0  0  0  0  0
    2.8340   -1.7710    0.5630 C   0  0  0  0  0  0
    4.6710   -0.4400    0.0940 C   0  0  0  0  0  0
    3.8850    0.6600   -0.0420 C   0  0  0  0  0  0
    6.5840    3.3070   -0.1160 N   0  0  0  0  0  0
    2.5240    0.5830    0.1050 C   0  0  0  0  0  0
    4.1350   -1.7150    0.3370 N   0  0  0  0  0  0
    4.4400    5.1610   -2.2310 N   0  0  0  0  0  0
    3.3000    5.4340   -2.9270 C   0  0  0  0  0  0
    3.0910    6.6920   -3.4420 N   0  0  0  0  0  0
    1.9930    7.1290   -4.1370 C   0  0  0  0  0  0
    1.0180    6.1850   -4.2910 C   0  0  0  0  0  0
    1.1930    4.8780   -3.8830 C   0  0  0  0  0  0
    2.3790    4.4610   -3.2310 C   0  0  0  0  0  0
   12.3355    9.0774   -1.9376 H   0  0  0  0  0  0
   12.1396    7.2949   -2.0427 H   0  0  0  0  0  0
   11.9059    8.1330   -0.4712 H   0  0  0  0  0  0
    6.2732    1.4501    0.7579 H   0  0  0  0  0  0
    5.5285    7.0231   -2.6822 H   0  0  0  0  0  0
    9.9494    9.3071   -1.3883 H   0  0  0  0  0  0
   10.1831    8.4691   -2.9598 H   0  0  0  0  0  0
   10.1297    6.5538   -0.5989 H   0  0  0  0  0  0
    2.9697    2.6994   -1.5146 H   0  0  0  0  0  0
    0.9267   -0.7797    0.5249 H   0  0  0  0  0  0
    8.2555    5.4256   -0.2053 H   0  0  0  0  0  0
    2.3954   -2.7164    0.8824 H   0  0  0  0  0  0
    5.7522   -0.3292    0.0118 H   0  0  0  0  0  0
    1.8847    1.4583   -0.0101 H   0  0  0  0  0  0
    1.9058    8.1411   -4.5321 H   0  0  0  0  0  0
    0.0723    6.4727   -4.7504 H   0  0  0  0  0  0
    0.4015    4.1514   -4.0666 H   0  0  0  0  0  0
    2.5534    3.4144   -2.9814 H   0  0  0  0  0  0
  1  8  2  0  0  0
  2  9  1  0  0  0
  2 28  1  0  0  0
  2 29  1  0  0  0
  2 30  1  0  0  0
  3 11  1  0  0  0
  3 18  2  0  0  0
  3 31  1  0  0  0
  4  5  2  0  0  0
  4  7  1  0  0  0
  4 18  1  0  0  0
  5 12  1  0  0  0
  5 21  1  0  0  0
  6  7  2  0  0  0
  6 21  1  0  0  0
  6 32  1  0  0  0
  7 14  1  0  0  0
  8 10  1  0  0  0
  8 14  1  0  0  0
  9 10  1  0  0  0
  9 33  1  0  0  0
  9 34  1  0  0  0
 10 35  1  0  0  0
 11 12  2  0  0  0
 11 17  1  0  0  0
 12 36  1  0  0  0
 13 15  2  0  0  0
 13 19  1  0  0  0
 13 37  1  0  0  0
 14 38  1  0  0  0
 15 20  1  0  0  0
 15 39  1  0  0  0
 16 17  1  0  0  0
 16 20  2  0  0  0
 16 40  1  0  0  0
 17 19  2  0  0  0
 19 41  1  0  0  0
 21 22  1  0  0  0
 22 23  2  0  0  0
 22 27  1  0  0  0
 23 24  1  0  0  0
 24 25  2  0  0  0
 24 42  1  0  0  0
 25 26  1  0  0  0
 25 43  1  0  0  0
 26 27  2  0  0  0
 26 44  1  0  0  0
 27 45  1  0  0  0
M  END
> <s_m_source_file>
../5d7c_ligand.sdf

> <i_m_source_file_index>
1

> <s_epik_input>
W0NIM11bQ0gyXVtOSF1DKD1PKVtOSF1jMVtjSF1uKC1jMm5bY0hdW2NIXVtjSF1bY0hdMiljKGMxMylbY0hdYyhbY0hdbjMpLWM0W2NIXW5bY0hdW2NIXVtjSF00

> <s_epik_cmdline>
J2VwaWtfYXBwJywgJy1pbWFlJywgJ2xpZ2FuZF9wcm8ubWFlJywgJy1vbWFlJywgJ2xpZ2FuZF9wcmVwLm1hZScsICctbXMnLCAnMScsICctcGgnLCAnNycsICctcGh0JywgJzAuNScsICctbnQn

> <r_lp_tautomer_probability>
1

> <r_epik_Ionization_Penalty>
  0.1143

> <r_epik_Ionization_Penalty_Charging>
  0.0000

> <r_epik_Ionization_Penalty_Neutral>
  0.1143

> <r_epik_State_Penalty>
  0.1010

> <r_epik_Charging_Adjusted_Penalty>
0.100965369822288

> <i_epik_Tot_Q>
0

> <i_epik_Tot_abs_Q>
0

$$$$
