5d7e_ligand
                    3D
 Schrodinger Suite 2020-3.
123122  0  0  1  0            999 V2000
   32.7370   32.6580   -6.0130 C   0  0  0  0  0  0
   32.9240   31.1620   -5.7860 C   0  0  0  0  0  0
   34.0460   30.6630   -5.7560 O   0  0  0  0  0  0
   31.8210   30.4380   -5.6320 N   0  0  0  0  0  0
   31.9060   29.0160   -5.2980 C   0  0  2  0  0  0
   32.5510   28.1750   -6.4130 C   0  0  0  0  0  0
   33.1530   27.1320   -6.1420 O   0  0  0  0  0  0
   30.5140   28.4890   -4.9520 C   0  0  0  0  0  0
   29.9940   29.0710   -3.6480 C   0  0  0  0  0  0
   28.4940   28.9820   -3.5240 C   0  0  0  0  0  0
   27.7490   29.5530   -4.3330 O   0  0  0  0  0  0
   28.0340   28.2740   -2.5000 N   0  0  0  0  0  0
   32.4610   28.6640   -7.6490 N   0  0  0  0  0  0
   33.0940   28.0090   -8.7940 C   0  0  2  0  0  0
   34.4820   28.5560   -9.1370 C   0  0  0  0  0  0
   35.0490   28.1560  -10.1540 O   0  0  0  0  0  0
   32.2250   28.1280  -10.0640 C   0  0  2  0  0  0
   32.1440   29.5060  -10.4530 O   0  0  0  0  0  0
   30.8320   27.5870   -9.8080 C   0  0  0  0  0  0
   35.0100   29.4760   -8.3220 N   0  0  0  0  0  0
   36.3840   29.9720   -8.5120 C   0  0  2  0  0  0
   37.3760   28.8300   -8.7090 C   0  0  0  0  0  0
   37.4630   27.9310   -7.8690 O   0  0  0  0  0  0
   36.8220   30.8070   -7.3330 C   0  0  0  0  0  0
   38.1410   28.8710   -9.7990 N   0  0  0  0  0  0
   39.1310   27.8300  -10.0560 C   0  0  2  0  0  0
   40.4270   28.3730  -10.6520 C   0  0  0  0  0  0
   40.4270   29.3880  -11.3330 O   0  0  0  0  0  0
   38.5540   26.7570  -10.9820 C   0  0  0  0  0  0
   37.4110   25.9610  -10.3900 C   0  0  0  0  0  0
   37.0770   24.7580  -11.2540 C   0  0  0  0  0  0
   38.1310   23.7530  -11.2200 N   0  0  0  0  0  0
   38.2640   22.8530  -10.2500 C   0  0  0  0  0  0
   37.4100   22.8410   -9.2330 N   0  0  0  0  0  0
   39.2450   21.9650  -10.3000 N   0  3  0  0  0  0
   44.6170   29.7960   -3.9420 O   0  0  0  0  0  0
   45.7550   29.7940   -4.4470 C   0  0  0  0  0  0
   46.9330   30.5080   -3.8080 C   0  0  0  0  0  0
   45.9650   29.1250   -5.6370 N   0  0  0  0  0  0
   44.9090   28.4210   -6.3050 C   0  0  0  0  0  0
   45.1250   28.2050   -7.7970 C   0  0  0  0  0  0
   43.7950   28.0890   -8.5060 C   0  0  0  0  0  0
   44.0200   27.7300   -9.9570 C   0  0  0  0  0  0
   42.8320   28.0270  -10.8930 C   0  0  2  0  0  0
   41.5240   27.6730  -10.3800 N   0  0  0  0  0  0
   43.1730   27.1700  -12.1120 C   0  0  0  0  0  0
   42.7960   25.9960  -12.2430 O   0  0  0  0  0  0
   43.9430   27.7690  -13.0240 N   0  0  0  0  0  0
   44.4630   27.0480  -14.1870 C   0  0  2  0  0  0
   45.6160   26.1070  -13.8060 C   0  0  0  0  0  0
   46.4120   26.4220  -12.9260 O   0  0  0  0  0  0
   44.9290   28.0310  -15.2640 C   0  0  0  0  0  0
   45.5590   27.3410  -16.3330 O   0  0  0  0  0  0
   45.7040   24.9590  -14.4790 N   0  0  0  0  0  0
   46.7400   23.9630  -14.1830 C   0  0  2  0  0  0
   47.9020   23.9810  -15.1880 C   0  0  0  0  0  0
   48.0720   24.9310  -15.9580 O   0  5  0  0  0  0
   46.1500   22.5240  -14.1440 C   0  0  2  0  0  0
   45.4150   22.2690  -15.3490 O   0  0  0  0  0  0
   45.2290   22.3440  -12.9420 C   0  0  0  0  0  0
   48.7050   23.0460  -15.2600 O   0  0  0  0  0  0
   33.7206   33.1377   -6.1244 H   0  0  0  0  0  0
   32.2105   33.0964   -5.1524 H   0  0  0  0  0  0
   32.1449   32.8191   -6.9260 H   0  0  0  0  0  0
   30.8381   30.9157   -5.7576 H   0  0  0  0  0  0
   32.5679   28.9730   -4.4205 H   0  0  0  0  0  0
   29.8104   28.7582   -5.7535 H   0  0  0  0  0  0
   30.5514   27.3944   -4.8493 H   0  0  0  0  0  0
   30.4337   28.5237   -2.8011 H   0  0  0  0  0  0
   30.2735   30.1329   -3.5831 H   0  0  0  0  0  0
   28.7369   27.7856   -1.8091 H   0  0  0  0  0  0
   26.9498   28.1756   -2.3422 H   0  0  0  0  0  0
   31.8877   29.5916   -7.7937 H   0  0  0  0  0  0
   33.1832   26.9756   -8.4279 H   0  0  0  0  0  0
   32.6763   27.5924  -10.9122 H   0  0  0  0  0  0
   33.0617   30.0681  -10.6806 H   0  0  0  0  0  0
   30.8981   26.5302   -9.5100 H   0  0  0  0  0  0
   30.2312   27.6723  -10.7255 H   0  0  0  0  0  0
   30.3561   28.1660   -9.0028 H   0  0  0  0  0  0
   34.3950   29.8626   -7.4960 H   0  0  0  0  0  0
   36.3407   30.5933   -9.4187 H   0  0  0  0  0  0
   36.1111   31.6332   -7.1845 H   0  0  0  0  0  0
   37.8247   31.2162   -7.5259 H   0  0  0  0  0  0
   36.8494   30.1800   -6.4296 H   0  0  0  0  0  0
   38.0197   29.7021  -10.5093 H   0  0  0  0  0  0
   39.3453   27.4259   -9.0556 H   0  0  0  0  0  0
   38.1714   27.2305  -11.8982 H   0  0  0  0  0  0
   39.3424   26.0359  -11.2437 H   0  0  0  0  0  0
   37.6917   25.6066   -9.3872 H   0  0  0  0  0  0
   36.5186   26.5999  -10.3166 H   0  0  0  0  0  0
   36.1476   24.2937  -10.8925 H   0  0  0  0  0  0
   36.9438   25.0812  -12.2970 H   0  0  0  0  0  0
   38.8757   23.7094  -12.0284 H   0  0  0  0  0  0
   36.5948   23.5783   -9.1906 H   0  0  0  0  0  0
   37.5179   22.0938   -8.4330 H   0  0  0  0  0  0
   39.9528   21.9742  -11.1420 H   0  0  0  0  0  0
   46.6074   30.9890   -2.8739 H   0  0  0  0  0  0
   47.3174   31.2724   -4.4994 H   0  0  0  0  0  0
   47.7276   29.7798   -3.5879 H   0  0  0  0  0  0
   46.9754   29.1420   -6.0714 H   0  0  0  0  0  0
   44.7913   27.4240   -5.8554 H   0  0  0  0  0  0
   43.9696   28.9836   -6.2002 H   0  0  0  0  0  0
   45.6820   29.0570   -8.2140 H   0  0  0  0  0  0
   45.6986   27.2797   -7.9543 H   0  0  0  0  0  0
   43.1908   27.3050   -8.0261 H   0  0  0  0  0  0
   43.2628   29.0499   -8.4467 H   0  0  0  0  0  0
   44.8777   28.2980  -10.3465 H   0  0  0  0  0  0
   44.2253   26.6526  -10.0406 H   0  0  0  0  0  0
   42.6743   29.1032  -11.0571 H   0  0  0  0  0  0
   41.4069   26.7901   -9.7344 H   0  0  0  0  0  0
   44.1841   28.8330  -12.8836 H   0  0  0  0  0  0
   43.6099   26.4557  -14.5495 H   0  0  0  0  0  0
   44.0619   28.5816  -15.6577 H   0  0  0  0  0  0
   45.6465   28.7410  -14.8268 H   0  0  0  0  0  0
   45.9536   27.9020  -17.1930 H   0  0  0  0  0  0
   44.9703   24.7692  -15.2763 H   0  0  0  0  0  0
   47.1019   24.2945  -13.1986 H   0  0  0  0  0  0
   46.9504   21.7701  -14.1125 H   0  0  0  0  0  0
   45.9147   22.3500  -16.3256 H   0  0  0  0  0  0
   45.7912   22.5392  -12.0169 H   0  0  0  0  0  0
   44.8436   21.3138  -12.9264 H   0  0  0  0  0  0
   44.3879   23.0491  -13.0157 H   0  0  0  0  0  0
   39.3521   21.2181   -9.4996 H   0  0  0  0  0  0
  1  2  1  0  0  0
  1 62  1  0  0  0
  1 63  1  0  0  0
  1 64  1  0  0  0
  2  3  2  0  0  0
  2  4  1  0  0  0
  4  5  1  0  0  0
  4 65  1  0  0  0
  5  6  1  0  0  0
  5  8  1  0  0  0
  5 66  1  0  0  0
  6  7  2  0  0  0
  6 13  1  0  0  0
  8  9  1  0  0  0
  8 67  1  0  0  0
  8 68  1  0  0  0
  9 10  1  0  0  0
  9 69  1  0  0  0
  9 70  1  0  0  0
 10 11  2  0  0  0
 10 12  1  0  0  0
 12 71  1  0  0  0
 12 72  1  0  0  0
 13 14  1  0  0  0
 13 73  1  0  0  0
 14 15  1  0  0  0
 14 17  1  0  0  0
 14 74  1  0  0  0
 15 16  2  0  0  0
 15 20  1  0  0  0
 17 18  1  0  0  0
 17 19  1  0  0  0
 17 75  1  0  0  0
 18 76  1  0  0  0
 19 77  1  0  0  0
 19 78  1  0  0  0
 19 79  1  0  0  0
 20 21  1  0  0  0
 20 80  1  0  0  0
 21 22  1  0  0  0
 21 24  1  0  0  0
 21 81  1  0  0  0
 22 23  2  0  0  0
 22 25  1  0  0  0
 24 82  1  0  0  0
 24 83  1  0  0  0
 24 84  1  0  0  0
 25 26  1  0  0  0
 25 85  1  0  0  0
 26 27  1  0  0  0
 26 29  1  0  0  0
 26 86  1  0  0  0
 27 28  2  0  0  0
 27 45  1  0  0  0
 29 30  1  0  0  0
 29 87  1  0  0  0
 29 88  1  0  0  0
 30 31  1  0  0  0
 30 89  1  0  0  0
 30 90  1  0  0  0
 31 32  1  0  0  0
 31 91  1  0  0  0
 31 92  1  0  0  0
 32 33  1  0  0  0
 32 93  1  0  0  0
 33 34  1  0  0  0
 33 35  2  0  0  0
 34 94  1  0  0  0
 34 95  1  0  0  0
 35 96  1  0  0  0
 35123  1  0  0  0
 36 37  2  0  0  0
 37 38  1  0  0  0
 37 39  1  0  0  0
 38 97  1  0  0  0
 38 98  1  0  0  0
 38 99  1  0  0  0
 39 40  1  0  0  0
 39100  1  0  0  0
 40 41  1  0  0  0
 40101  1  0  0  0
 40102  1  0  0  0
 41 42  1  0  0  0
 41103  1  0  0  0
 41104  1  0  0  0
 42 43  1  0  0  0
 42105  1  0  0  0
 42106  1  0  0  0
 43 44  1  0  0  0
 43107  1  0  0  0
 43108  1  0  0  0
 44 45  1  0  0  0
 44 46  1  0  0  0
 44109  1  0  0  0
 45110  1  0  0  0
 46 47  2  0  0  0
 46 48  1  0  0  0
 48 49  1  0  0  0
 48111  1  0  0  0
 49 50  1  0  0  0
 49 52  1  0  0  0
 49112  1  0  0  0
 50 51  2  0  0  0
 50 54  1  0  0  0
 52 53  1  0  0  0
 52113  1  0  0  0
 52114  1  0  0  0
 53115  1  0  0  0
 54 55  1  0  0  0
 54116  1  0  0  0
 55 56  1  0  0  0
 55 58  1  0  0  0
 55117  1  0  0  0
 56 57  1  0  0  0
 56 61  2  0  0  0
 58 59  1  0  0  0
 58 60  1  0  0  0
 58118  1  0  0  0
 59119  1  0  0  0
 60120  1  0  0  0
 60121  1  0  0  0
 60122  1  0  0  0
M  CHG  2  35   1  57  -1
M  END
> <s_m_source_file>
../5d7e_ligand.sdf

> <i_m_source_file_index>
1

> <s_epik_input>
Tz1DKFtOSDJdKVtDSDJdW0NIMl1bQ0BIXShbTkhdQyg9TylbQ0gzXSlDKD1PKVtOSF1bQ0BASF0oW0NASF0oW09IXSlbQ0gzXSlDKD1PKVtOSF1bQ0BASF0oW0NIM10pQyg9TylbTkhdW0NAQEhdKFtDSDJdW0NIMl1bQ0gyXVtOSF0vQyhbTkgyXSk9TlxbSF0pQyg9TylbTkhdW0NAQEhdKFtDSDJdW0NIMl1bQ0gyXVtDSDJdW05IXUMoPU8pW0NIM10pQyg9TylbTkhdW0NAQEhdKFtDSDJdW09IXSlDKD1PKVtOSF1bQ0BIXShDKD1PKVtPSF0pW0NASF0oW09IXSlbQ0gzXQ==

> <s_epik_cmdline>
J2VwaWtfYXBwJywgJy1pbWFlJywgJ2xpZ2FuZF9wcm8ubWFlJywgJy1vbWFlJywgJ2xpZ2FuZF9wcmVwLm1hZScsICctbXMnLCAnMScsICctcGgnLCAnNycsICctcGh0JywgJzAuNScsICctbnQn

> <r_lp_tautomer_probability>
1

> <r_epik_Ionization_Penalty>
  0.0001

> <r_epik_Ionization_Penalty_Charging>
  0.0001

> <r_epik_Ionization_Penalty_Neutral>
  0.0000

> <r_epik_State_Penalty>
 -0.0000

> <r_epik_Charging_Adjusted_Penalty>
0.000120994039116071

> <i_epik_Tot_Q>
0

> <i_epik_Tot_abs_Q>
2

> <s_epik_Chemistry_Notes>
This compound has an imine and may undergo hydrolysis.

$$$$
