5d7r_ligand
                    3D
 Schrodinger Suite 2020-3.
 43 46  0  0  1  0            999 V2000
    1.1560  -21.4950   22.1040 C   0  0  0  0  0  0
    1.5870  -20.3640   21.4140 C   0  0  0  0  0  0
   -2.2040  -27.8390   24.7220 C   0  0  0  0  0  0
   -0.1020  -28.5010   25.3140 C   0  0  0  0  0  0
   -0.3110  -24.1970   23.4470 C   0  0  0  0  0  0
    1.9040  -21.8990   23.2260 C   0  0  0  0  0  0
   -0.8920  -27.5130   24.8270 C   0  0  0  0  0  0
    3.5010  -19.9880   22.9640 C   0  0  0  0  0  0
    3.0460  -21.1520   23.5860 C   0  0  0  0  0  0
    2.7060  -19.6660   21.8450 C   0  0  0  0  0  0
   -2.6150  -29.0920   25.1250 C   0  0  0  0  0  0
    1.8400  -22.9610   24.1780 C   0  0  0  0  0  0
    0.8940  -24.1010   24.1580 C   0  0  0  0  0  0
   -1.7540  -30.0400   25.6000 C   0  0  0  0  0  0
   -0.3950  -26.2090   24.4340 C   0  0  0  0  0  0
   -2.1930  -31.3780   26.0730 C   0  0  0  0  0  0
    7.2860  -19.6820   23.5780 C   0  0  0  0  0  0
    4.7360  -19.1480   23.3780 C   0  0  0  0  0  0
    5.9120  -20.0480   23.0820 C   0  0  0  0  0  0
   -0.4680  -29.7290   25.7040 N   0  0  0  0  0  0
   -1.0150  -25.3830   23.6260 N   0  0  0  0  0  0
    2.8480  -22.8670   25.0740 N   0  0  0  0  0  0
    3.5480  -21.7630   24.7200 N   0  3  0  0  0  0
   -3.3610  -31.7540   26.1630 O   0  0  0  0  0  0
    3.0220  -18.5490   21.1070 O   0  0  0  0  0  0
   -3.9190  -29.3250   24.9930 O   0  0  0  0  0  0
   -1.1040  -32.0810   26.4730 O   0  5  0  0  0  0
    1.1030  -25.5820   24.9940 S   0  0  0  0  0  0
    0.2715  -22.0472   21.7865 H   0  0  0  0  0  0
    1.0429  -20.0261   20.5320 H   0  0  0  0  0  0
   -2.9225  -27.1218   24.3252 H   0  0  0  0  0  0
    0.9594  -28.2680   25.3984 H   0  0  0  0  0  0
   -0.6708  -23.3977   22.7991 H   0  0  0  0  0  0
    8.0058  -20.4531   23.2661 H   0  0  0  0  0  0
    7.2736  -19.6146   24.6759 H   0  0  0  0  0  0
    7.5821  -18.7110   23.1543 H   0  0  0  0  0  0
    4.7652  -18.2221   22.7849 H   0  0  0  0  0  0
    4.6671  -18.8968   24.4467 H   0  0  0  0  0  0
    5.9244  -20.1154   21.9841 H   0  0  0  0  0  0
    5.6158  -21.0190   23.5056 H   0  0  0  0  0  0
    2.4151  -18.2794   20.2301 H   0  0  0  0  0  0
   -4.5822  -28.5370   24.6068 H   0  0  0  0  0  0
    4.4141  -21.4453   25.3192 H   0  0  0  0  0  0
  1  2  2  0  0  0
  1  6  1  0  0  0
  1 29  1  0  0  0
  2 10  1  0  0  0
  2 30  1  0  0  0
  3  7  2  0  0  0
  3 11  1  0  0  0
  3 31  1  0  0  0
  4  7  1  0  0  0
  4 20  2  0  0  0
  4 32  1  0  0  0
  5 13  2  0  0  0
  5 21  1  0  0  0
  5 33  1  0  0  0
  6  9  2  0  0  0
  6 12  1  0  0  0
  7 15  1  0  0  0
  8  9  1  0  0  0
  8 10  2  0  0  0
  8 18  1  0  0  0
  9 23  1  0  0  0
 10 25  1  0  0  0
 11 14  2  0  0  0
 11 26  1  0  0  0
 12 13  1  0  0  0
 12 22  2  0  0  0
 13 28  1  0  0  0
 14 16  1  0  0  0
 14 20  1  0  0  0
 15 21  2  0  0  0
 15 28  1  0  0  0
 16 24  2  0  0  0
 16 27  1  0  0  0
 17 19  1  0  0  0
 17 34  1  0  0  0
 17 35  1  0  0  0
 17 36  1  0  0  0
 18 19  1  0  0  0
 18 37  1  0  0  0
 18 38  1  0  0  0
 19 39  1  0  0  0
 19 40  1  0  0  0
 22 23  1  0  0  0
 23 43  1  0  0  0
 25 41  1  0  0  0
 26 42  1  0  0  0
M  CHG  2  23   1  27  -1
M  END
> <s_m_source_file>
../5d7r_ligand.sdf

> <i_m_source_file_index>
1

> <s_epik_input>
W2NIXTFbY0hdYyhbT0hdKWMoW0NIMl1bQ0gyXVtDSDNdKWMoYzEyKVtuSF1uYzItYzNbY0hdbmMoczMpLWM0W2NIXWMoW09IXSljKEMoPU8pW09IXSluW2NIXTQ=

> <s_epik_cmdline>
J2VwaWtfYXBwJywgJy1pbWFlJywgJ2xpZ2FuZF9wcm8ubWFlJywgJy1vbWFlJywgJ2xpZ2FuZF9wcmVwLm1hZScsICctbXMnLCAnMScsICctcGgnLCAnNycsICctcGh0JywgJzAuNScsICctbnQn

> <r_epik_Ionization_Penalty>
  0.0023

> <r_epik_Ionization_Penalty_Charging>
  0.0000

> <r_epik_Ionization_Penalty_Neutral>
  0.0023

> <r_epik_State_Penalty>
  0.0622

> <r_epik_Charging_Adjusted_Penalty>
0.0621971893016902

> <i_epik_Tot_Q>
0

> <i_epik_Tot_abs_Q>
2

> <s_epik_Chemistry_Notes>
This compound has an imine and may undergo hydrolysis.

$$$$
