5d9k_ligand
                    3D
 Schrodinger Suite 2020-3.
 51 53  0  0  1  0            999 V2000
   -3.3840   14.3050   29.9230 C   0  0  0  0  0  0
   -4.9880   15.2660   28.5910 C   0  0  0  0  0  0
   -4.8700   16.4910   29.3100 C   0  0  0  0  0  0
   -7.4020   18.3950   27.6560 O   0  0  0  0  0  0
   -2.8970    8.3100   27.7560 O   0  0  0  0  0  0
   -9.0340   11.6080   26.8680 C   0  0  0  0  0  0
   -7.0450   11.6000   25.3660 C   0  0  0  0  0  0
   -5.9840   18.6060   29.9880 C   0  0  0  0  0  0
   -2.6040   11.9330   29.7140 C   0  0  0  0  0  0
   -3.8240   11.2630   29.6850 C   0  0  0  0  0  0
   -3.8830   10.0230   29.1070 C   0  0  0  0  0  0
   -2.7980    9.4260   28.5070 C   0  0  0  0  0  0
   -1.5900   10.0900   28.5830 C   0  0  0  0  0  0
   -1.4670   11.3250   29.1820 C   0  0  0  0  0  0
   -3.1520   15.4200   30.6280 N   0  0  0  0  0  0
   -4.2740   14.1740   28.9210 N   0  0  0  0  0  0
   -3.9000   16.4830   30.3050 C   0  0  0  0  0  0
   -2.5960   13.2370   30.2490 N   0  0  0  0  0  0
   -5.7690   15.2340   27.4440 N   0  0  0  0  0  0
   -6.0460   13.9620   26.7770 C   0  0  0  0  0  0
   -7.4640   13.4670   27.0280 C   0  0  0  0  0  0
   -7.5850   12.0020   26.7290 C   0  0  0  0  0  0
   -6.3370   16.4530   26.8350 C   0  0  1  0  0  0
   -6.5520   17.5420   27.8650 C   0  0  0  0  0  0
   -5.7870   17.5270   29.0160 N   0  0  0  0  0  0
   -5.4660   16.9920   25.7030 C   0  0  0  0  0  0
   -5.0240    9.3120   29.1820 F   0  0  0  0  0  0
   -0.5040    9.5090   28.0150 F   0  0  0  0  0  0
   -3.8557    7.7748   27.6899 H   0  0  0  0  0  0
   -9.1445   10.5350   26.6524 H   0  0  0  0  0  0
   -9.6416   12.1890   26.1586 H   0  0  0  0  0  0
   -9.3728   11.8126   27.8944 H   0  0  0  0  0  0
   -7.1712   10.5162   25.2267 H   0  0  0  0  0  0
   -5.9769   11.8557   25.3048 H   0  0  0  0  0  0
   -7.5962   12.1373   24.5802 H   0  0  0  0  0  0
   -5.3088   18.4567   30.8434 H   0  0  0  0  0  0
   -7.0267   18.5981   30.3382 H   0  0  0  0  0  0
   -5.7644   19.5730   29.5119 H   0  0  0  0  0  0
   -4.7166   11.7175   30.1149 H   0  0  0  0  0  0
   -0.4969   11.8187   29.2391 H   0  0  0  0  0  0
   -3.7365   17.4060   30.8613 H   0  0  0  0  0  0
   -1.8274   13.3385   31.0293 H   0  0  0  0  0  0
   -5.9169   14.0816   25.6912 H   0  0  0  0  0  0
   -5.3497   13.1948   27.1467 H   0  0  0  0  0  0
   -7.7294   13.6341   28.0823 H   0  0  0  0  0  0
   -8.1641   14.0170   26.3820 H   0  0  0  0  0  0
   -6.9601   11.4715   27.4625 H   0  0  0  0  0  0
   -7.3080   16.1285   26.4328 H   0  0  0  0  0  0
   -5.3086   16.2023   24.9536 H   0  0  0  0  0  0
   -4.4947   17.3118   26.1082 H   0  0  0  0  0  0
   -5.9672   17.8502   25.2316 H   0  0  0  0  0  0
  1 15  2  0  0  0
  1 16  1  0  0  0
  1 18  1  0  0  0
  2  3  1  0  0  0
  2 16  2  0  0  0
  2 19  1  0  0  0
  3 17  2  0  0  0
  3 25  1  0  0  0
  4 24  2  0  0  0
  5 12  1  0  0  0
  5 29  1  0  0  0
  6 22  1  0  0  0
  6 30  1  0  0  0
  6 31  1  0  0  0
  6 32  1  0  0  0
  7 22  1  0  0  0
  7 33  1  0  0  0
  7 34  1  0  0  0
  7 35  1  0  0  0
  8 25  1  0  0  0
  8 36  1  0  0  0
  8 37  1  0  0  0
  8 38  1  0  0  0
  9 10  2  0  0  0
  9 14  1  0  0  0
  9 18  1  0  0  0
 10 11  1  0  0  0
 10 39  1  0  0  0
 11 12  2  0  0  0
 11 27  1  0  0  0
 12 13  1  0  0  0
 13 14  2  0  0  0
 13 28  1  0  0  0
 14 40  1  0  0  0
 15 17  1  0  0  0
 17 41  1  0  0  0
 18 42  1  0  0  0
 19 20  1  0  0  0
 19 23  1  0  0  0
 20 21  1  0  0  0
 20 43  1  0  0  0
 20 44  1  0  0  0
 21 22  1  0  0  0
 21 45  1  0  0  0
 21 46  1  0  0  0
 22 47  1  0  0  0
 23 24  1  0  0  0
 23 26  1  0  0  0
 23 48  1  0  0  0
 24 25  1  0  0  0
 26 49  1  0  0  0
 26 50  1  0  0  0
 26 51  1  0  0  0
M  END
> <s_m_source_file>
../5d9k_ligand.sdf

> <i_m_source_file_index>
1

> <s_epik_input>
W2NIXTFjKEYpYyhbT0hdKWMoRilbY0hdYzFbTkhdYyhuMiluW2NIXWMoYzIzKU4oW0NIM10pQyg9TylbQ0BASF0oW0NIM10pTjNbQ0gyXVtDSDJdW0NIXShbQ0gzXSlbQ0gzXQ==

> <s_epik_cmdline>
J2VwaWtfYXBwJywgJy1pbWFlJywgJ2xpZ2FuZF9wcm8ubWFlJywgJy1vbWFlJywgJ2xpZ2FuZF9wcmVwLm1hZScsICctbXMnLCAnMScsICctcGgnLCAnNycsICctcGh0JywgJzAuNScsICctbnQn

> <r_lp_tautomer_probability>
1

> <r_epik_Ionization_Penalty>
  0.0620

> <r_epik_Ionization_Penalty_Charging>
  0.0000

> <r_epik_Ionization_Penalty_Neutral>
  0.0620

> <r_epik_State_Penalty>
 -0.0000

> <r_epik_Charging_Adjusted_Penalty>
0

> <i_epik_Tot_Q>
0

> <i_epik_Tot_abs_Q>
0

$$$$
