5d9p_ligand
                    3D
 Schrodinger Suite 2020-3.
 30 30  0  0  1  0            999 V2000
   -1.5690  -38.1620   -4.5370 C   0  0  2  0  0  0
   -0.5970  -38.0610   -3.3560 C   0  0  1  0  0  0
    0.4510  -39.1450   -3.3850 C   0  0  2  0  0  0
   -0.2820  -40.4910   -3.4730 C   0  0  1  0  0  0
   -0.9830  -40.4420   -4.8630 C   0  0  1  0  0  0
   -1.5920  -41.7730   -5.2880 C   0  0  0  0  0  0
   -3.3670  -36.6490   -5.2650 C   0  0  0  0  0  0
   -4.6180  -35.9080   -4.8180 C   0  0  0  0  0  0
   -2.7580  -37.3340   -4.2820 N   0  0  0  0  0  0
    1.2460  -39.0290   -2.1850 O   0  0  0  0  0  0
    0.0210  -36.7870   -3.4210 O   0  0  0  0  0  0
    0.5760  -41.6160   -3.3730 O   0  0  0  0  0  0
   -2.0520  -39.4990   -4.6840 O   0  0  0  0  0  0
   -2.5420  -42.1580   -4.3050 O   0  0  0  0  0  0
   -2.9680  -36.6000   -6.4410 O   0  0  0  0  0  0
   -1.0633  -37.8672   -5.4683 H   0  0  0  0  0  0
   -1.1219  -38.1283   -2.3917 H   0  0  0  0  0  0
    1.1669  -39.0390   -4.2134 H   0  0  0  0  0  0
   -0.9262  -40.6864   -2.6030 H   0  0  0  0  0  0
   -0.2970  -40.1352   -5.6663 H   0  0  0  0  0  0
   -2.0840  -41.6558   -6.2649 H   0  0  0  0  0  0
   -0.7987  -42.5311   -5.3656 H   0  0  0  0  0  0
   -4.7869  -36.0873   -3.7459 H   0  0  0  0  0  0
   -5.4837  -36.2710   -5.3914 H   0  0  0  0  0  0
   -4.4879  -34.8299   -4.9935 H   0  0  0  0  0  0
   -3.1714  -37.2636   -3.2651 H   0  0  0  0  0  0
    1.8247  -38.1130   -1.9950 H   0  0  0  0  0  0
   -0.5950  -35.8757   -3.4108 H   0  0  0  0  0  0
    1.1458  -41.7927   -2.4488 H   0  0  0  0  0  0
   -3.1019  -43.0979   -4.4196 H   0  0  0  0  0  0
  1  2  1  0  0  0
  1  9  1  0  0  0
  1 13  1  0  0  0
  1 16  1  0  0  0
  2  3  1  0  0  0
  2 11  1  0  0  0
  2 17  1  0  0  0
  3  4  1  0  0  0
  3 10  1  0  0  0
  3 18  1  0  0  0
  4  5  1  0  0  0
  4 12  1  0  0  0
  4 19  1  0  0  0
  5  6  1  0  0  0
  5 13  1  0  0  0
  5 20  1  0  0  0
  6 14  1  0  0  0
  6 21  1  0  0  0
  6 22  1  0  0  0
  7  8  1  0  0  0
  7  9  1  0  0  0
  7 15  2  0  0  0
  8 23  1  0  0  0
  8 24  1  0  0  0
  8 25  1  0  0  0
  9 26  1  0  0  0
 10 27  1  0  0  0
 11 28  1  0  0  0
 12 29  1  0  0  0
 14 30  1  0  0  0
M  END
> <s_m_source_file>
../5d9p_ligand.sdf

> <i_m_source_file_index>
1

> <s_epik_input>
W0NIM11DKD1PKVtOSF1bQ0BIXTFbQ0BIXShbT0hdKVtDQEBIXShbT0hdKVtDQEhdKFtPSF0pW0NASF0oTzEpW0NIMl1bT0hd

> <s_epik_cmdline>
J2VwaWtfYXBwJywgJy1pbWFlJywgJ2xpZ2FuZF9wcm8ubWFlJywgJy1vbWFlJywgJ2xpZ2FuZF9wcmVwLm1hZScsICctbXMnLCAnMScsICctcGgnLCAnNycsICctcGh0JywgJzAuNScsICctbnQn

> <r_lp_tautomer_probability>
1

> <r_epik_Ionization_Penalty>
  0.0000

> <r_epik_Ionization_Penalty_Charging>
  0.0000

> <r_epik_Ionization_Penalty_Neutral>
  0.0000

> <r_epik_State_Penalty>
 -0.0000

> <r_epik_Charging_Adjusted_Penalty>
0

> <i_epik_Tot_Q>
0

> <i_epik_Tot_abs_Q>
0

> <s_epik_Chemistry_Notes>
This compound contains an acetal/aminal-like group ( X-CH(R)-Y where X, Y are N, S, or O) that may be acid/base labile, releasing an aldehyde.

$$$$
