5dah_ligand
                    3D
 Schrodinger Suite 2020-3.
136135  0  0  1  0            999 V2000
   -7.7500   31.1720   -7.8100 N   0  3  0  0  0  0
   -8.3290   29.9840   -8.4530 C   0  0  2  0  0  0
   -8.4830   28.8550   -7.4330 C   0  0  0  0  0  0
   -7.4980   28.4120   -6.8120 O   0  0  0  0  0  0
   -7.4750   29.5060   -9.6410 C   0  0  0  0  0  0
   -9.7230   28.4130   -7.2500 N   0  0  0  0  0  0
  -10.0140   27.3780   -6.2810 C   0  0  2  0  0  0
   -9.2690   26.0930   -6.6420 C   0  0  0  0  0  0
   -9.2700   25.6690   -7.8030 O   0  0  0  0  0  0
  -11.5050   27.1290   -6.2120 C   0  0  0  0  0  0
   -8.6390   25.4860   -5.6390 N   0  0  0  0  0  0
   -7.9100   24.2470   -5.8190 C   0  0  2  0  0  0
   -8.8650   23.0850   -5.9420 C   0  0  0  0  0  0
  -10.0430   23.2300   -5.6310 O   0  0  0  0  0  0
   -6.9560   23.9650   -4.6580 C   0  0  2  0  0  0
   -7.7100   23.6990   -3.4640 O   0  0  0  0  0  0
   -5.9940   25.1360   -4.4430 C   0  0  0  0  0  0
   -8.3460   21.9370   -6.3940 N   0  0  0  0  0  0
   -9.1010   20.6750   -6.4320 C   0  0  2  0  0  0
   -9.6500   20.3100   -5.0530 C   0  0  0  0  0  0
  -10.7670   19.7910   -4.9280 O   0  0  0  0  0  0
   -8.2280   19.5260   -6.9610 C   0  0  0  0  0  0
   -7.8130   19.6580   -8.4180 C   0  0  0  0  0  0
   -9.0210   19.5090   -9.3370 C   0  0  0  0  0  0
   -8.6220   19.6240  -10.7990 C   0  0  0  0  0  0
   -9.7900   19.5500  -11.7190 N   0  3  0  0  0  0
   -8.8590   20.5880   -4.0210 N   0  0  0  0  0  0
   -9.2460   20.2530   -2.6590 C   0  0  2  0  0  0
  -10.4400   21.1030   -2.2080 C   0  0  0  0  0  0
  -11.3630   20.6000   -1.5690 O   0  0  0  0  0  0
   -8.0840   20.4370   -1.7340 C   0  0  0  0  0  0
  -10.4350   22.3860   -2.5630 N   0  0  0  0  0  0
  -11.4980   23.2810   -2.1290 C   0  0  2  0  0  0
  -12.8280   22.9320   -2.7830 C   0  0  0  0  0  0
  -13.8920   23.3150   -2.2930 O   0  0  0  0  0  0
  -11.1320   24.7170   -2.4170 C   0  0  0  0  0  0
  -12.7690   22.1920   -3.8840 N   0  0  0  0  0  0
  -13.9700   21.8530   -4.6270 C   0  0  2  0  0  0
  -14.5380   20.5010   -4.1710 C   0  0  0  0  0  0
  -15.6960   20.1830   -4.4290 O   0  0  0  0  0  0
  -13.6680   21.8740   -6.1340 C   0  0  0  0  0  0
  -13.3480   23.2840   -6.6520 C   0  0  0  0  0  0
  -12.8870   23.3510   -8.1020 C   0  0  0  0  0  0
  -13.9820   23.1420   -9.0400 N   0  0  0  0  0  0
  -13.8270   22.6500  -10.2730 C   0  0  0  0  0  0
  -12.6130   22.3170  -10.7270 N   0  0  0  0  0  0
  -14.8880   22.5080  -11.0720 N   0  3  0  0  0  0
  -13.7450   19.7210   -3.4440 N   0  0  0  0  0  0
  -14.2040   18.3990   -3.0100 C   0  0  2  0  0  0
  -15.4330   18.4410   -2.1180 C   0  0  0  0  0  0
  -15.4840   19.1910   -1.1460 O   0  0  0  0  0  0
  -13.1060   17.6530   -2.2640 C   0  0  0  0  0  0
  -13.4840   16.2140   -1.9260 C   0  0  0  0  0  0
  -12.3780   15.4990   -1.1720 C   0  0  0  0  0  0
  -12.7610   14.0760   -0.8980 C   0  0  0  0  0  0
  -11.6560   13.3510   -0.2520 N   0  3  0  0  0  0
  -16.4020   17.5920   -2.4480 N   0  0  0  0  0  0
  -17.5810   17.3710   -1.6160 C   0  0  2  0  0  0
  -17.2540   16.5130   -0.3870 C   0  0  0  0  0  0
  -18.1320   16.1810    0.4160 O   0  0  0  0  0  0
  -18.6860   16.7020   -2.4400 C   0  0  0  0  0  0
  -19.0990   17.5380   -3.5110 O   0  0  0  0  0  0
  -16.1020   16.1270   -0.1620 O   0  5  0  0  0  0
   -8.3877   31.4811   -6.9687 H   0  0  0  0  0  0
   -7.6863   31.9907   -8.5419 H   0  0  0  0  0  0
   -6.7426   30.9334   -7.4381 H   0  0  0  0  0  0
   -9.3147   30.3069   -8.8191 H   0  0  0  0  0  0
   -7.3695   30.3237  -10.3692 H   0  0  0  0  0  0
   -7.9650   28.6470  -10.1227 H   0  0  0  0  0  0
   -6.4802   29.2057   -9.2801 H   0  0  0  0  0  0
  -10.5353   28.8481   -7.8507 H   0  0  0  0  0  0
   -9.6641   27.7617   -5.3113 H   0  0  0  0  0  0
  -12.0213   28.0647   -5.9514 H   0  0  0  0  0  0
  -11.7146   26.3686   -5.4452 H   0  0  0  0  0  0
  -11.8628   26.7727   -7.1892 H   0  0  0  0  0  0
   -8.6854   25.9576   -4.6463 H   0  0  0  0  0  0
   -7.3503   24.4042   -6.7528 H   0  0  0  0  0  0
   -6.3796   23.0479   -4.8496 H   0  0  0  0  0  0
   -8.4493   22.8846   -3.4504 H   0  0  0  0  0  0
   -5.4288   25.3208   -5.3684 H   0  0  0  0  0  0
   -5.2953   24.8919   -3.6292 H   0  0  0  0  0  0
   -6.5666   26.0368   -4.1769 H   0  0  0  0  0  0
   -7.3048   21.9659   -6.7476 H   0  0  0  0  0  0
   -9.9369   20.8702   -7.1199 H   0  0  0  0  0  0
   -7.3010   19.4686   -6.3716 H   0  0  0  0  0  0
   -8.7778   18.5773   -6.8730 H   0  0  0  0  0  0
   -7.3607   20.6472   -8.5822 H   0  0  0  0  0  0
   -7.0806   18.8747   -8.6631 H   0  0  0  0  0  0
   -9.4837   18.5238   -9.1776 H   0  0  0  0  0  0
   -9.7529   20.2986   -9.1115 H   0  0  0  0  0  0
   -8.1202   20.5883  -10.9674 H   0  0  0  0  0  0
   -7.9362   18.8038  -11.0575 H   0  0  0  0  0  0
   -9.4435   19.6383  -12.7593 H   0  0  0  0  0  0
  -10.4868   20.3708  -11.4937 H   0  0  0  0  0  0
  -10.3027   18.5862  -11.5838 H   0  0  0  0  0  0
   -7.8949   21.0814   -4.2132 H   0  0  0  0  0  0
   -9.5221   19.1883   -2.6699 H   0  0  0  0  0  0
   -7.2411   19.8189   -2.0767 H   0  0  0  0  0  0
   -8.3728   20.1320   -0.7173 H   0  0  0  0  0  0
   -7.7841   21.4953   -1.7281 H   0  0  0  0  0  0
   -9.6165   22.7679   -3.1909 H   0  0  0  0  0  0
  -11.5762   23.1294   -1.0423 H   0  0  0  0  0  0
  -10.1702   24.9533   -1.9384 H   0  0  0  0  0  0
  -11.9129   25.3814   -2.0185 H   0  0  0  0  0  0
  -11.0463   24.8626   -3.5039 H   0  0  0  0  0  0
  -11.7883   21.8344   -4.2310 H   0  0  0  0  0  0
  -14.7059   22.6338   -4.3846 H   0  0  0  0  0  0
  -12.7995   21.2321   -6.3429 H   0  0  0  0  0  0
  -14.5417   21.5006   -6.6883 H   0  0  0  0  0  0
  -14.2467   23.9141   -6.5790 H   0  0  0  0  0  0
  -12.5420   23.7232   -6.0458 H   0  0  0  0  0  0
  -12.4506   24.3406   -8.3026 H   0  0  0  0  0  0
  -12.1304   22.5732   -8.2826 H   0  0  0  0  0  0
  -15.0121   23.3940   -8.7478 H   0  0  0  0  0  0
  -11.7327   22.4301  -10.0772 H   0  0  0  0  0  0
  -12.4954   21.9302  -11.7500 H   0  0  0  0  0  0
  -15.8903   22.7788  -10.7086 H   0  0  0  0  0  0
  -12.7397   20.0721   -3.1682 H   0  0  0  0  0  0
  -14.4631   17.9108   -3.9611 H   0  0  0  0  0  0
  -12.1975   17.6223   -2.8835 H   0  0  0  0  0  0
  -12.8878   18.1712   -1.3186 H   0  0  0  0  0  0
  -14.3868   16.2100   -1.2976 H   0  0  0  0  0  0
  -13.6814   15.6589   -2.8549 H   0  0  0  0  0  0
  -11.4572   15.5107   -1.7737 H   0  0  0  0  0  0
  -12.1971   16.0100   -0.2148 H   0  0  0  0  0  0
  -13.6362   14.0536   -0.2320 H   0  0  0  0  0  0
  -13.0080   13.5739   -1.8450 H   0  0  0  0  0  0
  -11.9612   12.3115   -0.0617 H   0  0  0  0  0  0
  -11.4044   13.8396    0.7009 H   0  0  0  0  0  0
  -10.7761   13.3599   -0.9121 H   0  0  0  0  0  0
  -16.2864   17.0441   -3.3948 H   0  0  0  0  0  0
  -17.8892   18.3747   -1.2878 H   0  0  0  0  0  0
  -18.3110   15.7552   -2.8559 H   0  0  0  0  0  0
  -19.5538   16.5008   -1.7947 H   0  0  0  0  0  0
  -19.8885   17.2010   -4.1988 H   0  0  0  0  0  0
  -14.7594   22.1203  -12.0933 H   0  0  0  0  0  0
  1  2  1  0  0  0
  1 64  1  0  0  0
  1 65  1  0  0  0
  1 66  1  0  0  0
  2  3  1  0  0  0
  2  5  1  0  0  0
  2 67  1  0  0  0
  3  4  2  0  0  0
  3  6  1  0  0  0
  5 68  1  0  0  0
  5 69  1  0  0  0
  5 70  1  0  0  0
  6  7  1  0  0  0
  6 71  1  0  0  0
  7  8  1  0  0  0
  7 10  1  0  0  0
  7 72  1  0  0  0
  8  9  2  0  0  0
  8 11  1  0  0  0
 10 73  1  0  0  0
 10 74  1  0  0  0
 10 75  1  0  0  0
 11 12  1  0  0  0
 11 76  1  0  0  0
 12 13  1  0  0  0
 12 15  1  0  0  0
 12 77  1  0  0  0
 13 14  2  0  0  0
 13 18  1  0  0  0
 15 16  1  0  0  0
 15 17  1  0  0  0
 15 78  1  0  0  0
 16 79  1  0  0  0
 17 80  1  0  0  0
 17 81  1  0  0  0
 17 82  1  0  0  0
 18 19  1  0  0  0
 18 83  1  0  0  0
 19 20  1  0  0  0
 19 22  1  0  0  0
 19 84  1  0  0  0
 20 21  2  0  0  0
 20 27  1  0  0  0
 22 23  1  0  0  0
 22 85  1  0  0  0
 22 86  1  0  0  0
 23 24  1  0  0  0
 23 87  1  0  0  0
 23 88  1  0  0  0
 24 25  1  0  0  0
 24 89  1  0  0  0
 24 90  1  0  0  0
 25 26  1  0  0  0
 25 91  1  0  0  0
 25 92  1  0  0  0
 26 93  1  0  0  0
 26 94  1  0  0  0
 26 95  1  0  0  0
 27 28  1  0  0  0
 27 96  1  0  0  0
 28 29  1  0  0  0
 28 31  1  0  0  0
 28 97  1  0  0  0
 29 30  2  0  0  0
 29 32  1  0  0  0
 31 98  1  0  0  0
 31 99  1  0  0  0
 31100  1  0  0  0
 32 33  1  0  0  0
 32101  1  0  0  0
 33 34  1  0  0  0
 33 36  1  0  0  0
 33102  1  0  0  0
 34 35  2  0  0  0
 34 37  1  0  0  0
 36103  1  0  0  0
 36104  1  0  0  0
 36105  1  0  0  0
 37 38  1  0  0  0
 37106  1  0  0  0
 38 39  1  0  0  0
 38 41  1  0  0  0
 38107  1  0  0  0
 39 40  2  0  0  0
 39 48  1  0  0  0
 41 42  1  0  0  0
 41108  1  0  0  0
 41109  1  0  0  0
 42 43  1  0  0  0
 42110  1  0  0  0
 42111  1  0  0  0
 43 44  1  0  0  0
 43112  1  0  0  0
 43113  1  0  0  0
 44 45  1  0  0  0
 44114  1  0  0  0
 45 46  1  0  0  0
 45 47  2  0  0  0
 46115  1  0  0  0
 46116  1  0  0  0
 47117  1  0  0  0
 47136  1  0  0  0
 48 49  1  0  0  0
 48118  1  0  0  0
 49 50  1  0  0  0
 49 52  1  0  0  0
 49119  1  0  0  0
 50 51  2  0  0  0
 50 57  1  0  0  0
 52 53  1  0  0  0
 52120  1  0  0  0
 52121  1  0  0  0
 53 54  1  0  0  0
 53122  1  0  0  0
 53123  1  0  0  0
 54 55  1  0  0  0
 54124  1  0  0  0
 54125  1  0  0  0
 55 56  1  0  0  0
 55126  1  0  0  0
 55127  1  0  0  0
 56128  1  0  0  0
 56129  1  0  0  0
 56130  1  0  0  0
 57 58  1  0  0  0
 57131  1  0  0  0
 58 59  1  0  0  0
 58 61  1  0  0  0
 58132  1  0  0  0
 59 60  2  0  0  0
 59 63  1  0  0  0
 61 62  1  0  0  0
 61133  1  0  0  0
 61134  1  0  0  0
 62135  1  0  0  0
M  CHG  5   1   1  26   1  47   1  56   1  63  -1
M  END
> <s_m_source_file>
../5dah_ligand.sdf

> <i_m_source_file_index>
1

> <s_epik_input>
W05IMytdW0NAQEhdKFtDSDNdKUMoPU8pW05IXVtDQEBIXShbQ0gzXSlDKD1PKVtOSF1bQ0BASF0oW0NASF0oW09IXSlbQ0gzXSlDKD1PKVtOSF1bQ0BASF0oW0NIMl1bQ0gyXVtDSDJdW0NIMl1bTkgzK10pQyg9TylbTkhdW0NAQEhdKFtDSDNdKUMoPU8pW05IXVtDQEBIXShbQ0gzXSlDKD1PKVtOSF1bQ0BASF0oW0NIMl1bQ0gyXVtDSDJdW05IXS9DKFtOSDJdKT1OXFtIXSlDKD1PKVtOSF1bQ0BIXShDKD1PKVtOSF1bQ0BIXShDKD1PKVtPSF0pW0NIMl1bT0hdKVtDSDJdW0NIMl1bQ0gyXVtDSDJdW05IMytd

> <s_epik_cmdline>
J2VwaWtfYXBwJywgJy1pbWFlJywgJ2xpZ2FuZF9wcm8ubWFlJywgJy1vbWFlJywgJ2xpZ2FuZF9wcmVwLm1hZScsICctbXMnLCAnMScsICctcGgnLCAnNycsICctcGh0JywgJzAuNScsICctbnQn

> <r_epik_Ionization_Penalty>
  0.1249

> <r_epik_Ionization_Penalty_Charging>
  0.1249

> <r_epik_Ionization_Penalty_Neutral>
  0.0000

> <r_epik_State_Penalty>
  0.1134

> <r_epik_Charging_Adjusted_Penalty>
0.238325594568976

> <i_epik_Tot_Q>
3

> <i_epik_Tot_abs_Q>
5

> <s_epik_Chemistry_Notes>
This compound has an imine and may undergo hydrolysis.

$$$$
