5dd9_ligand
                    3D
 Schrodinger Suite 2020-3.
 41 44  0  0  1  0            999 V2000
  -13.3730    7.4140  -12.4190 C   0  0  0  0  0  0
  -13.5220    8.7410  -12.1300 C   0  0  0  0  0  0
  -12.4420    9.4020  -11.6040 C   0  0  0  0  0  0
  -11.2700    8.7570  -11.3860 N   0  0  0  0  0  0
  -12.2240    6.7840  -12.2060 N   0  0  0  0  0  0
  -17.7500    6.4250  -12.0240 F   0  0  0  0  0  0
  -18.0090    7.7380  -12.1820 C   0  0  0  0  0  0
  -17.7500    8.3520  -11.0260 F   0  0  0  0  0  0
  -19.2940    7.8810  -12.4770 F   0  0  0  0  0  0
  -17.1340    8.3470  -13.3120 C   0  0  0  0  0  0
  -15.6600    8.2050  -12.9090 C   0  0  0  0  0  0
  -14.7670    6.7170  -13.0870 S   0  0  0  0  0  0
  -14.8070    9.1460  -12.4130 C   0  0  0  0  0  0
  -11.1110    7.4290  -11.7130 C   0  0  0  0  0  0
  -12.4030   10.7270  -11.2920 N   0  0  0  0  0  0
  -11.2610   11.2880  -10.5140 C   0  0  0  0  0  0
  -11.4690   12.7780  -10.2500 C   0  0  0  0  0  0
  -13.2760   11.7410  -11.9410 C   0  0  0  0  0  0
  -12.4370   12.9320  -12.4970 C   0  0  0  0  0  0
  -11.5520   13.4780  -11.5120 N   0  0  0  0  0  0
  -10.7330   14.4650  -11.8470 C   0  0  0  0  0  0
  -10.6380   15.0950  -13.4470 S   0  0  0  0  0  0
   -9.8860   15.0470  -10.9840 N   0  0  0  0  0  0
   -9.1080   16.0570  -11.6150 N   0  0  0  0  0  0
   -9.3940   16.1870  -12.9290 C   0  0  0  0  0  0
   -8.6960   17.1900  -13.8490 C   0  0  0  0  0  0
  -17.3218    7.8077  -14.2521 H   0  0  0  0  0  0
  -17.3892    9.4091  -13.4413 H   0  0  0  0  0  0
  -15.1285   10.1743  -12.2477 H   0  0  0  0  0  0
  -10.1572    6.9163  -11.5887 H   0  0  0  0  0  0
  -11.1811   10.7636   -9.5503 H   0  0  0  0  0  0
  -10.3290   11.1541  -11.0826 H   0  0  0  0  0  0
  -12.4017   12.9236   -9.6854 H   0  0  0  0  0  0
  -10.6223   13.1687   -9.6664 H   0  0  0  0  0  0
  -13.8212   11.2754  -12.7753 H   0  0  0  0  0  0
  -13.9949   12.1307  -11.2053 H   0  0  0  0  0  0
  -11.8303   12.5876  -13.3475 H   0  0  0  0  0  0
  -13.1133   13.7332  -12.8297 H   0  0  0  0  0  0
   -9.1047   17.1005  -14.8663 H   0  0  0  0  0  0
   -7.6163   16.9805  -13.8679 H   0  0  0  0  0  0
   -8.8650   18.2103  -13.4744 H   0  0  0  0  0  0
  1  2  2  0  0  0
  1  5  1  0  0  0
  1 12  1  0  0  0
  2  3  1  0  0  0
  2 13  1  0  0  0
  3  4  2  0  0  0
  3 15  1  0  0  0
  4 14  1  0  0  0
  5 14  2  0  0  0
  6  7  1  0  0  0
  7  8  1  0  0  0
  7  9  1  0  0  0
  7 10  1  0  0  0
 10 11  1  0  0  0
 10 27  1  0  0  0
 10 28  1  0  0  0
 11 12  1  0  0  0
 11 13  2  0  0  0
 13 29  1  0  0  0
 14 30  1  0  0  0
 15 16  1  0  0  0
 15 18  1  0  0  0
 16 17  1  0  0  0
 16 31  1  0  0  0
 16 32  1  0  0  0
 17 20  1  0  0  0
 17 33  1  0  0  0
 17 34  1  0  0  0
 18 19  1  0  0  0
 18 35  1  0  0  0
 18 36  1  0  0  0
 19 20  1  0  0  0
 19 37  1  0  0  0
 19 38  1  0  0  0
 20 21  1  0  0  0
 21 22  1  0  0  0
 21 23  2  0  0  0
 22 25  1  0  0  0
 23 24  1  0  0  0
 24 25  2  0  0  0
 25 26  1  0  0  0
 26 39  1  0  0  0
 26 40  1  0  0  0
 26 41  1  0  0  0
M  END
> <s_m_source_file>
../5dd9_ligand.sdf

> <i_m_source_file_index>
1

> <s_epik_input>
RkMoRikoRilbQ0gyXWMoczEpW2NIXWMoYzEyKWMobltjSF1uMilOM1tDSDJdW0NIMl1OKFtDSDJdW0NIMl0zKWM0c2Mobm40KVtDSDNd

> <s_epik_cmdline>
J2VwaWtfYXBwJywgJy1pbWFlJywgJ2xpZ2FuZF9wcm8ubWFlJywgJy1vbWFlJywgJ2xpZ2FuZF9wcmVwLm1hZScsICctbXMnLCAnMScsICctcGgnLCAnNycsICctcGh0JywgJzAuNScsICctbnQn

> <r_lp_tautomer_probability>
1

> <r_epik_Ionization_Penalty>
  0.0006

> <r_epik_Ionization_Penalty_Charging>
  0.0000

> <r_epik_Ionization_Penalty_Neutral>
  0.0006

> <r_epik_State_Penalty>
 -0.0000

> <r_epik_Charging_Adjusted_Penalty>
0

> <i_epik_Tot_Q>
0

> <i_epik_Tot_abs_Q>
0

$$$$
