5ddb_ligand
                    3D
 Schrodinger Suite 2020-3.
 41 44  0  0  1  0            999 V2000
   10.9450    7.5470  -12.3190 C   0  0  0  0  0  0
   10.8170    8.8580  -12.0050 C   0  0  0  0  0  0
   11.9100    9.5160  -11.5030 C   0  0  0  0  0  0
   13.0510    8.8540  -11.3020 N   0  0  0  0  0  0
   12.0850    6.9210  -12.1380 N   0  0  0  0  0  0
    5.1130    7.9790  -12.2780 F   0  0  0  0  0  0
    6.3660    7.8370  -12.0200 C   0  0  0  0  0  0
    6.5840    6.6070  -11.8780 F   0  0  0  0  0  0
    6.5880    8.3780  -10.9570 F   0  0  0  0  0  0
    7.2570    8.4520  -13.1270 C   0  0  0  0  0  0
    8.7440    8.2900  -12.7680 C   0  0  0  0  0  0
    9.5700    6.8800  -12.9590 S   0  0  0  0  0  0
    9.5480    9.2570  -12.2720 C   0  0  0  0  0  0
   13.2080    7.5390  -11.6530 C   0  0  0  0  0  0
   11.9980   10.8320  -11.1640 N   0  0  0  0  0  0
   11.0230   11.8070  -11.7160 C   0  0  0  0  0  0
   11.7170   13.0560  -12.2880 C   0  0  0  0  0  0
   13.0760   11.3250  -10.2750 C   0  0  0  0  0  0
   12.9950   12.8490  -10.0870 C   0  0  0  0  0  0
   12.7760   13.5520  -11.3770 N   0  0  0  0  0  0
   13.5640   14.5850  -11.7030 C   0  0  0  0  0  0
   13.6370   15.3290  -13.1610 S   0  0  0  0  0  0
   14.4300   15.1570  -10.8610 N   0  0  0  0  0  0
   15.1040   16.1550  -11.4110 N   0  0  0  0  0  0
   14.7710   16.3700  -12.6860 C   0  0  0  0  0  0
   15.3790   17.4440  -13.5740 C   0  0  0  0  0  0
   14.4700   18.4520  -13.7790 F   0  0  0  0  0  0
   15.7470   16.8770  -14.7940 F   0  0  0  0  0  0
    7.0607    7.9416  -14.0814 H   0  0  0  0  0  0
    7.0273    9.5228  -13.2298 H   0  0  0  0  0  0
    9.2039   10.2769  -12.1001 H   0  0  0  0  0  0
   14.1611    7.0197  -11.5533 H   0  0  0  0  0  0
   10.4483   11.3327  -12.5252 H   0  0  0  0  0  0
   10.3366   12.1301  -10.9195 H   0  0  0  0  0  0
   12.1773   12.8087  -13.2560 H   0  0  0  0  0  0
   10.9750   13.8558  -12.4285 H   0  0  0  0  0  0
   12.9855   10.8463   -9.2888 H   0  0  0  0  0  0
   14.0543   11.0789  -10.7136 H   0  0  0  0  0  0
   12.1588   13.0916   -9.4148 H   0  0  0  0  0  0
   13.9354   13.2150   -9.6492 H   0  0  0  0  0  0
   16.2707   17.9352  -13.1573 H   0  0  0  0  0  0
  1  2  2  0  0  0
  1  5  1  0  0  0
  1 12  1  0  0  0
  2  3  1  0  0  0
  2 13  1  0  0  0
  3  4  2  0  0  0
  3 15  1  0  0  0
  4 14  1  0  0  0
  5 14  2  0  0  0
  6  7  1  0  0  0
  7  8  1  0  0  0
  7  9  1  0  0  0
  7 10  1  0  0  0
 10 11  1  0  0  0
 10 29  1  0  0  0
 10 30  1  0  0  0
 11 12  1  0  0  0
 11 13  2  0  0  0
 13 31  1  0  0  0
 14 32  1  0  0  0
 15 16  1  0  0  0
 15 18  1  0  0  0
 16 17  1  0  0  0
 16 33  1  0  0  0
 16 34  1  0  0  0
 17 20  1  0  0  0
 17 35  1  0  0  0
 17 36  1  0  0  0
 18 19  1  0  0  0
 18 37  1  0  0  0
 18 38  1  0  0  0
 19 20  1  0  0  0
 19 39  1  0  0  0
 19 40  1  0  0  0
 20 21  1  0  0  0
 21 22  1  0  0  0
 21 23  2  0  0  0
 22 25  1  0  0  0
 23 24  1  0  0  0
 24 25  2  0  0  0
 25 26  1  0  0  0
 26 27  1  0  0  0
 26 28  1  0  0  0
 26 41  1  0  0  0
M  END
> <s_m_source_file>
../5ddb_ligand.sdf

> <i_m_source_file_index>
1

> <s_epik_input>
RkMoRikoRilbQ0gyXWMoczEpW2NIXWMoYzEyKWMobltjSF1uMilOM1tDSDJdW0NIMl1OKFtDSDJdW0NIMl0zKWM0c2Mobm40KVtDSF0oRilG

> <s_epik_cmdline>
J2VwaWtfYXBwJywgJy1pbWFlJywgJ2xpZ2FuZF9wcm8ubWFlJywgJy1vbWFlJywgJ2xpZ2FuZF9wcmVwLm1hZScsICctbXMnLCAnMScsICctcGgnLCAnNycsICctcGh0JywgJzAuNScsICctbnQn

> <r_lp_tautomer_probability>
1

> <r_epik_Ionization_Penalty>
  0.0003

> <r_epik_Ionization_Penalty_Charging>
  0.0000

> <r_epik_Ionization_Penalty_Neutral>
  0.0003

> <r_epik_State_Penalty>
 -0.0000

> <r_epik_Charging_Adjusted_Penalty>
0

> <i_epik_Tot_Q>
0

> <i_epik_Tot_abs_Q>
0

$$$$
