5ddd_ligand
                    3D
 Schrodinger Suite 2020-3.
 48 51  0  0  1  0            999 V2000
   13.1900    7.4520   12.2150 C   0  0  0  0  0  0
   13.3750    8.7680   11.9540 C   0  0  0  0  0  0
   12.2990    9.4800   11.4380 C   0  0  0  0  0  0
   11.1320    8.8540   11.2110 N   0  0  0  0  0  0
   12.0290    6.8390   12.0160 N   0  0  0  0  0  0
   17.6150    6.6850   11.8440 F   0  0  0  0  0  0
   17.8090    8.0020   11.9790 C   0  0  0  0  0  0
   16.9300    8.4480   13.1720 C   0  0  0  0  0  0
   15.4580    8.2200   12.7450 C   0  0  0  0  0  0
   14.5360    6.7780   12.8910 S   0  0  0  0  0  0
   14.6560    9.1660   12.2470 C   0  0  0  0  0  0
   10.9770    7.5210   11.4980 C   0  0  0  0  0  0
   12.2550   10.7980   11.1230 N   0  0  0  0  0  0
   11.0860   11.3100   10.3490 C   0  0  0  0  0  0
   11.1260   12.7840   10.1360 C   0  0  0  0  0  0
   13.1880   11.8490   11.7270 C   0  0  0  0  0  0
   12.2230   12.7520   12.5080 C   0  0  0  0  0  0
   11.3640   13.4340   11.5230 N   0  3  0  0  0  0
   10.7670   14.6020   11.8210 C   0  0  0  0  0  0
   10.8700   15.3580   13.3100 S   0  0  0  0  0  0
    9.9130   16.8010   12.9010 C   0  0  0  0  0  0
    8.8140   17.0670   13.9700 C   0  0  0  0  0  0
   10.8370   18.0210   12.7740 C   0  0  0  0  0  0
    9.3570   16.5830   11.5630 C   0  0  0  0  0  0
    9.9880   15.3160   10.9780 N   0  0  0  0  0  0
   18.8733    8.1974   12.1769 H   0  0  0  0  0  0
   17.5083    8.5138   11.0529 H   0  0  0  0  0  0
   17.1800    7.8449   14.0573 H   0  0  0  0  0  0
   17.1162    9.5104   13.3877 H   0  0  0  0  0  0
   14.9971   10.1883   12.0838 H   0  0  0  0  0  0
   10.0268    7.0199   11.3133 H   0  0  0  0  0  0
   11.0635   10.8309    9.3590 H   0  0  0  0  0  0
   10.1573   11.0768   10.8903 H   0  0  0  0  0  0
   11.9442   13.0324    9.4440 H   0  0  0  0  0  0
   10.1695   13.1187    9.7081 H   0  0  0  0  0  0
   13.9258   11.3547   12.3760 H   0  0  0  0  0  0
   13.7098   12.3835   10.9195 H   0  0  0  0  0  0
   11.6158   12.1375   13.1889 H   0  0  0  0  0  0
   12.7985   13.4859   13.0912 H   0  0  0  0  0  0
    9.2868   17.2229   14.9509 H   0  0  0  0  0  0
    8.1368   16.2018   14.0227 H   0  0  0  0  0  0
    8.2416   17.9643   13.6920 H   0  0  0  0  0  0
   11.2908   18.2406   13.7517 H   0  0  0  0  0  0
   10.2526   18.8901   12.4374 H   0  0  0  0  0  0
   11.6294   17.8062   12.0419 H   0  0  0  0  0  0
    8.2661   16.4616   11.6346 H   0  0  0  0  0  0
    9.5885   17.4481   10.9243 H   0  0  0  0  0  0
    9.7948   15.0382    9.9313 H   0  0  0  0  0  0
  1  2  2  0  0  0
  1  5  1  0  0  0
  1 10  1  0  0  0
  2  3  1  0  0  0
  2 11  1  0  0  0
  3  4  2  0  0  0
  3 13  1  0  0  0
  4 12  1  0  0  0
  5 12  2  0  0  0
  6  7  1  0  0  0
  7  8  1  0  0  0
  7 26  1  0  0  0
  7 27  1  0  0  0
  8  9  1  0  0  0
  8 28  1  0  0  0
  8 29  1  0  0  0
  9 10  1  0  0  0
  9 11  2  0  0  0
 11 30  1  0  0  0
 12 31  1  0  0  0
 13 14  1  0  0  0
 13 16  1  0  0  0
 14 15  1  0  0  0
 14 32  1  0  0  0
 14 33  1  0  0  0
 15 18  1  0  0  0
 15 34  1  0  0  0
 15 35  1  0  0  0
 16 17  1  0  0  0
 16 36  1  0  0  0
 16 37  1  0  0  0
 17 18  1  0  0  0
 17 38  1  0  0  0
 17 39  1  0  0  0
 18 19  2  0  0  0
 19 20  1  0  0  0
 19 25  1  0  0  0
 20 21  1  0  0  0
 21 22  1  0  0  0
 21 23  1  0  0  0
 21 24  1  0  0  0
 22 40  1  0  0  0
 22 41  1  0  0  0
 22 42  1  0  0  0
 23 43  1  0  0  0
 23 44  1  0  0  0
 23 45  1  0  0  0
 24 25  1  0  0  0
 24 46  1  0  0  0
 24 47  1  0  0  0
 25 48  1  0  0  0
M  CHG  1  18   1
M  END
> <s_m_source_file>
../5ddd_ligand.sdf

> <i_m_source_file_index>
1

> <s_epik_input>
RltDSDJdW0NIMl1jKHMxKVtjSF1jKGMxMiljKG5bY0hdbjIpTjNbQ0gyXVtDSDJdW04rXShbQ0gyXVtDSDJdMyk9QyhbTkhdW0NIMl00KVNDNChbQ0gzXSlbQ0gzXQ==

> <s_epik_cmdline>
J2VwaWtfYXBwJywgJy1pbWFlJywgJ2xpZ2FuZF9wcm8ubWFlJywgJy1vbWFlJywgJ2xpZ2FuZF9wcmVwLm1hZScsICctbXMnLCAnMScsICctcGgnLCAnNycsICctcGh0JywgJzAuNScsICctbnQn

> <r_lp_tautomer_probability>
1

> <r_epik_Ionization_Penalty>
  0.0095

> <r_epik_Ionization_Penalty_Charging>
  0.0000

> <r_epik_Ionization_Penalty_Neutral>
  0.0095

> <r_epik_State_Penalty>
 -0.0000

> <r_epik_Charging_Adjusted_Penalty>
0

> <i_epik_Tot_Q>
1

> <i_epik_Tot_abs_Q>
1

> <s_epik_Chemistry_Notes>
This compound has an imine and may undergo hydrolysis.

$$$$
