5dde_ligand
                    3D
 Schrodinger Suite 2020-3.
 48 51  0  0  1  0            999 V2000
  -13.2520    7.4600  -12.2020 C   0  0  0  0  0  0
  -13.3970    8.7780  -11.9270 C   0  0  0  0  0  0
  -12.3190    9.4840  -11.4370 C   0  0  0  0  0  0
  -11.1570    8.8430  -11.2460 N   0  0  0  0  0  0
  -12.1030    6.8520  -12.0180 N   0  0  0  0  0  0
  -17.5310    6.2240  -11.8250 F   0  0  0  0  0  0
  -17.7680    7.5810  -11.9130 C   0  0  0  0  0  0
  -19.1010    7.8030  -12.1910 F   0  0  0  0  0  0
  -16.8750    8.2040  -13.0580 C   0  0  0  0  0  0
  -15.4210    8.0730  -12.6820 C   0  0  0  0  0  0
  -14.6530    6.7680  -12.7940 S   0  0  0  0  0  0
  -14.6860    9.0950  -12.1990 C   0  0  0  0  0  0
  -10.9940    7.5090  -11.5400 C   0  0  0  0  0  0
  -12.2540   10.8230  -11.1400 N   0  0  0  0  0  0
  -13.1310   11.7750  -11.7850 C   0  0  0  0  0  0
  -12.3300   12.9030  -12.4800 C   0  0  0  0  0  0
  -11.1550   11.4480  -10.3760 C   0  0  0  0  0  0
  -11.3750   12.9430  -10.1980 C   0  0  0  0  0  0
  -11.5170   13.5910  -11.5120 N   0  3  0  0  0  0
  -10.8700   14.7040  -11.8200 C   0  0  0  0  0  0
  -10.9450   15.3970  -13.2810 S   0  0  0  0  0  0
  -10.0490   16.8270  -12.8590 C   0  0  0  0  0  0
   -8.9700   17.1010  -13.9130 C   0  0  0  0  0  0
  -10.9960   18.0300  -12.7630 C   0  0  0  0  0  0
   -9.4340   16.5520  -11.5530 C   0  0  0  0  0  0
  -10.0710   15.3710  -10.9720 N   0  0  0  0  0  0
  -17.6134    7.9710  -10.8961 H   0  0  0  0  0  0
  -17.0615    7.6687  -14.0007 H   0  0  0  0  0  0
  -17.1288    9.2669  -13.1836 H   0  0  0  0  0  0
  -15.0947   10.0930  -12.0406 H   0  0  0  0  0  0
  -10.0393    7.0015  -11.4017 H   0  0  0  0  0  0
  -13.7369   11.2592  -12.5445 H   0  0  0  0  0  0
  -13.7938   12.2301  -11.0343 H   0  0  0  0  0  0
  -11.6825   12.4684  -13.2558 H   0  0  0  0  0  0
  -13.0276   13.6169  -12.9423 H   0  0  0  0  0  0
  -11.0917   10.9857   -9.3799 H   0  0  0  0  0  0
  -10.2054   11.2984  -10.9106 H   0  0  0  0  0  0
  -12.2896   13.1116   -9.6106 H   0  0  0  0  0  0
  -10.5145   13.3800   -9.6701 H   0  0  0  0  0  0
   -9.4479   17.3045  -14.8826 H   0  0  0  0  0  0
   -8.3150   16.2220  -14.0043 H   0  0  0  0  0  0
   -8.3729   17.9731  -13.6083 H   0  0  0  0  0  0
  -11.4468   18.2213  -13.7480 H   0  0  0  0  0  0
  -10.4308   18.9167  -12.4400 H   0  0  0  0  0  0
  -11.7895   17.8146  -12.0322 H   0  0  0  0  0  0
   -8.3577   16.3677  -11.6861 H   0  0  0  0  0  0
   -9.5785   17.4178  -10.8900 H   0  0  0  0  0  0
   -9.8754   15.1002   -9.9240 H   0  0  0  0  0  0
  1  2  2  0  0  0
  1  5  1  0  0  0
  1 11  1  0  0  0
  2  3  1  0  0  0
  2 12  1  0  0  0
  3  4  2  0  0  0
  3 14  1  0  0  0
  4 13  1  0  0  0
  5 13  2  0  0  0
  6  7  1  0  0  0
  7  8  1  0  0  0
  7  9  1  0  0  0
  7 27  1  0  0  0
  9 10  1  0  0  0
  9 28  1  0  0  0
  9 29  1  0  0  0
 10 11  1  0  0  0
 10 12  2  0  0  0
 12 30  1  0  0  0
 13 31  1  0  0  0
 14 15  1  0  0  0
 14 17  1  0  0  0
 15 16  1  0  0  0
 15 32  1  0  0  0
 15 33  1  0  0  0
 16 19  1  0  0  0
 16 34  1  0  0  0
 16 35  1  0  0  0
 17 18  1  0  0  0
 17 36  1  0  0  0
 17 37  1  0  0  0
 18 19  1  0  0  0
 18 38  1  0  0  0
 18 39  1  0  0  0
 19 20  2  0  0  0
 20 21  1  0  0  0
 20 26  1  0  0  0
 21 22  1  0  0  0
 22 23  1  0  0  0
 22 24  1  0  0  0
 22 25  1  0  0  0
 23 40  1  0  0  0
 23 41  1  0  0  0
 23 42  1  0  0  0
 24 43  1  0  0  0
 24 44  1  0  0  0
 24 45  1  0  0  0
 25 26  1  0  0  0
 25 46  1  0  0  0
 25 47  1  0  0  0
 26 48  1  0  0  0
M  CHG  1  19   1
M  END
> <s_m_source_file>
../5dde_ligand.sdf

> <i_m_source_file_index>
1

> <s_epik_input>
RltDSF0oRilbQ0gyXWMoczEpW2NIXWMoYzEyKWMobltjSF1uMilOM1tDSDJdW0NIMl1bTitdKFtDSDJdW0NIMl0zKT1DKFtOSF1bQ0gyXTQpU0M0KFtDSDNdKVtDSDNd

> <s_epik_cmdline>
J2VwaWtfYXBwJywgJy1pbWFlJywgJ2xpZ2FuZF9wcm8ubWFlJywgJy1vbWFlJywgJ2xpZ2FuZF9wcmVwLm1hZScsICctbXMnLCAnMScsICctcGgnLCAnNycsICctcGh0JywgJzAuNScsICctbnQn

> <r_lp_tautomer_probability>
1

> <r_epik_Ionization_Penalty>
  0.0094

> <r_epik_Ionization_Penalty_Charging>
  0.0000

> <r_epik_Ionization_Penalty_Neutral>
  0.0094

> <r_epik_State_Penalty>
 -0.0000

> <r_epik_Charging_Adjusted_Penalty>
0

> <i_epik_Tot_Q>
1

> <i_epik_Tot_abs_Q>
1

> <s_epik_Chemistry_Notes>
This compound has an imine and may undergo hydrolysis.

$$$$
