5ddf_ligand
                    3D
 Schrodinger Suite 2020-3.
 48 51  0  0  1  0            999 V2000
   13.2240    7.6090   12.1510 C   0  0  0  0  0  0
   13.3430    8.9250   11.8640 C   0  0  0  0  0  0
   12.2620    9.6000   11.3850 C   0  0  0  0  0  0
   11.1220    8.9230   11.2000 N   0  0  0  0  0  0
   12.0980    6.9530   11.9880 N   0  0  0  0  0  0
   19.0430    8.0670   12.3930 F   0  0  0  0  0  0
   17.8120    7.8980   11.9210 C   0  0  0  0  0  0
   17.6350    6.6230   11.5900 F   0  0  0  0  0  0
   17.6410    8.6620   10.8480 F   0  0  0  0  0  0
   16.8080    8.2870   12.9820 C   0  0  0  0  0  0
   16.9490    7.4600   14.0030 F   0  0  0  0  0  0
   17.1010    9.5060   13.3960 F   0  0  0  0  0  0
   15.3630    8.2740   12.5740 C   0  0  0  0  0  0
   14.5790    7.0060   12.7310 S   0  0  0  0  0  0
   14.6120    9.3000   12.1320 C   0  0  0  0  0  0
   10.9750    7.5900   11.5180 C   0  0  0  0  0  0
   12.2300   10.9370   11.0920 N   0  0  0  0  0  0
   11.1980   11.5550   10.2250 C   0  0  0  0  0  0
   11.3030   13.0990   10.2280 C   0  0  0  0  0  0
   13.1920   11.8440   11.7640 C   0  0  0  0  0  0
   12.4590   12.9790   12.5010 C   0  0  0  0  0  0
   11.5290   13.6840   11.5850 N   0  0  0  0  0  0
   10.8980   14.8000   11.9410 C   0  0  0  0  0  0
   11.0440   15.5500   13.3950 S   0  0  0  0  0  0
    9.9940   16.8870   13.0510 C   0  0  0  0  0  0
    8.8560   16.9320   14.0800 C   0  0  0  0  0  0
   10.7880   18.1980   13.1040 C   0  0  0  0  0  0
    9.4430   16.6650   11.6710 C   0  0  0  0  0  0
   10.0710   15.4380   11.1250 N   0  3  0  0  0  0
   14.9853   10.3162   12.0051 H   0  0  0  0  0  0
   10.0232    7.0713   11.4033 H   0  0  0  0  0  0
   11.3265   11.1999    9.1919 H   0  0  0  0  0  0
   10.1982   11.2739   10.5876 H   0  0  0  0  0  0
   12.1455   13.4104    9.5930 H   0  0  0  0  0  0
   10.3699   13.5307    9.8369 H   0  0  0  0  0  0
   13.7841   11.2739   12.4951 H   0  0  0  0  0  0
   13.8636   12.2870   11.0139 H   0  0  0  0  0  0
   11.8829   12.5599   13.3392 H   0  0  0  0  0  0
   13.1942   13.7010   12.8861 H   0  0  0  0  0  0
    9.2755   17.0949   15.0837 H   0  0  0  0  0  0
    8.3076   15.9786   14.0621 H   0  0  0  0  0  0
    8.1694   17.7547   13.8316 H   0  0  0  0  0  0
   11.1843   18.3459   14.1194 H   0  0  0  0  0  0
   10.1273   19.0376   12.8423 H   0  0  0  0  0  0
   11.6219   18.1508   12.3882 H   0  0  0  0  0  0
    8.3513   16.5426   11.7274 H   0  0  0  0  0  0
    9.6825   17.5313   11.0368 H   0  0  0  0  0  0
    9.8883   15.0488   10.1125 H   0  0  0  0  0  0
  1  2  2  0  0  0
  1  5  1  0  0  0
  1 14  1  0  0  0
  2  3  1  0  0  0
  2 15  1  0  0  0
  3  4  2  0  0  0
  3 17  1  0  0  0
  4 16  1  0  0  0
  5 16  2  0  0  0
  6  7  1  0  0  0
  7  8  1  0  0  0
  7  9  1  0  0  0
  7 10  1  0  0  0
 10 11  1  0  0  0
 10 12  1  0  0  0
 10 13  1  0  0  0
 13 14  1  0  0  0
 13 15  2  0  0  0
 15 30  1  0  0  0
 16 31  1  0  0  0
 17 18  1  0  0  0
 17 20  1  0  0  0
 18 19  1  0  0  0
 18 32  1  0  0  0
 18 33  1  0  0  0
 19 22  1  0  0  0
 19 34  1  0  0  0
 19 35  1  0  0  0
 20 21  1  0  0  0
 20 36  1  0  0  0
 20 37  1  0  0  0
 21 22  1  0  0  0
 21 38  1  0  0  0
 21 39  1  0  0  0
 22 23  1  0  0  0
 23 24  1  0  0  0
 23 29  2  0  0  0
 24 25  1  0  0  0
 25 26  1  0  0  0
 25 27  1  0  0  0
 25 28  1  0  0  0
 26 40  1  0  0  0
 26 41  1  0  0  0
 26 42  1  0  0  0
 27 43  1  0  0  0
 27 44  1  0  0  0
 27 45  1  0  0  0
 28 29  1  0  0  0
 28 46  1  0  0  0
 28 47  1  0  0  0
 29 48  1  0  0  0
M  CHG  1  29   1
M  END
> <s_m_source_file>
../5ddf_ligand.sdf

> <i_m_source_file_index>
1

> <s_epik_input>
RkMoRikoRilDKEYpKEYpYyhzMSlbY0hdYyhjMTIpYyhuW2NIXW4yKU4zW0NIMl1bQ0gyXU4oW0NIMl1bQ0gyXTMpQyg9TltDSDJdNClTQzQoW0NIM10pW0NIM10=

> <s_epik_cmdline>
J2VwaWtfYXBwJywgJy1pbWFlJywgJ2xpZ2FuZF9wcm8ubWFlJywgJy1vbWFlJywgJ2xpZ2FuZF9wcmVwLm1hZScsICctbXMnLCAnMScsICctcGgnLCAnNycsICctcGh0JywgJzAuNScsICctbnQn

> <r_lp_tautomer_probability>
1

> <r_epik_Ionization_Penalty>
  0.0092

> <r_epik_Ionization_Penalty_Charging>
  0.0000

> <r_epik_Ionization_Penalty_Neutral>
  0.0092

> <r_epik_State_Penalty>
 -0.0000

> <r_epik_Charging_Adjusted_Penalty>
0

> <i_epik_Tot_Q>
1

> <i_epik_Tot_abs_Q>
1

> <s_epik_Chemistry_Notes>
This compound has an imine and may undergo hydrolysis.

$$$$
