5dgu_ligand
                    3D
 Schrodinger Suite 2020-3.
 84 87  0  0  1  0            999 V2000
   21.0870   27.7320   14.9240 C   0  0  0  0  0  0
   19.7070   27.7450   14.6640 C   0  0  0  0  0  0
   18.9320   26.6070   14.9660 C   0  0  0  0  0  0
   19.5170   25.4800   15.5180 C   0  0  0  0  0  0
   20.8850   25.4560   15.7790 C   0  0  0  0  0  0
   21.6820   26.5810   15.4840 C   0  0  0  0  0  0
   18.5240   24.0650   15.8910 S   0  0  0  0  0  0
   17.4480   24.0070   14.8840 O   0  0  0  0  0  0
   19.4510   22.9130   16.0770 O   0  0  0  0  0  0
   17.8140   24.3110   17.3700 N   0  0  1  0  0  0
   18.6980   24.6170   18.4740 C   0  0  0  0  0  0
   18.3800   23.8620   19.7750 C   0  0  0  0  0  0
   18.4680   22.3390   19.6070 C   0  0  0  0  0  0
   19.3680   24.2860   20.8840 C   0  0  0  0  0  0
   16.5420   25.0170   17.3990 C   0  0  0  0  0  0
   15.4480   24.0820   17.9260 C   0  0  1  0  0  0
   14.2740   24.8400   18.2620 O   0  0  0  0  0  0
   15.0590   22.9940   16.9270 C   0  0  1  0  0  0
   14.1890   22.0000   17.5610 N   0  0  0  0  0  0
   14.4580   20.7030   17.7020 C   0  0  0  0  0  0
   15.5710   20.1940   17.4960 O   0  0  0  0  0  0
   13.3670   19.9680   18.0730 O   0  0  0  0  0  0
   13.6300   18.5770   18.2790 C   0  0  1  0  0  0
   13.8690   18.4070   19.7820 C   0  0  0  0  0  0
   11.4290   18.0130   20.1880 O   0  0  0  0  0  0
   11.1900   17.9780   18.7800 C   0  0  1  0  0  0
   10.6250   19.2310   18.3840 O   0  0  0  0  0  0
   10.8520   19.4230   16.9840 C   0  0  0  0  0  0
   11.8050   18.3120   16.5290 C   0  0  1  0  0  0
   12.3780   17.7920   17.8760 C   0  0  1  0  0  0
   14.3360   23.5560   15.6800 C   0  0  0  0  0  0
   12.7860   21.9140   14.5710 C   0  0  0  0  0  0
   12.4990   20.8520   13.7360 C   0  0  0  0  0  0
   13.5220   20.1560   13.0710 C   0  0  0  0  0  0
   14.7970   20.6790   13.1340 C   0  0  0  0  0  0
   15.0940   21.7790   13.9810 C   0  0  0  0  0  0
   14.0840   22.3860   14.7020 C   0  0  0  0  0  0
   21.7730   28.8690   14.6040 O   0  0  0  0  0  0
   23.1060   28.8440   15.0580 C   0  0  0  0  0  0
   10.9720   17.2700   15.9700 O   0  0  0  0  0  0
   10.7600   17.4680   14.5710 C   0  0  0  0  0  0
   12.6050   18.7500   20.5460 C   0  0  0  0  0  0
   19.2384   28.6291   14.2316 H   0  0  0  0  0  0
   17.8611   26.6143   14.7629 H   0  0  0  0  0  0
   21.3404   24.5655   16.2123 H   0  0  0  0  0  0
   22.7527   26.5620   15.6874 H   0  0  0  0  0  0
   19.7312   24.3583   18.1990 H   0  0  0  0  0  0
   18.6380   25.6908   18.7050 H   0  0  0  0  0  0
   17.3441   24.1176   20.0425 H   0  0  0  0  0  0
   17.7705   22.0160   18.8201 H   0  0  0  0  0  0
   18.2026   21.8495   20.5557 H   0  0  0  0  0  0
   19.4939   22.0599   19.3248 H   0  0  0  0  0  0
   19.3202   25.3765   21.0203 H   0  0  0  0  0  0
   20.3893   23.9969   20.5953 H   0  0  0  0  0  0
   19.0980   23.7865   21.8261 H   0  0  0  0  0  0
   16.6239   25.8930   18.0592 H   0  0  0  0  0  0
   16.2826   25.3471   16.3823 H   0  0  0  0  0  0
   15.8126   23.6117   18.8511 H   0  0  0  0  0  0
   14.3442   25.6764   18.9730 H   0  0  0  0  0  0
   15.9888   22.4874   16.6289 H   0  0  0  0  0  0
   13.2154   22.3041   17.9729 H   0  0  0  0  0  0
   14.4976   18.2806   17.6712 H   0  0  0  0  0  0
   14.1496   17.3645   19.9930 H   0  0  0  0  0  0
   14.6804   19.0771   20.1024 H   0  0  0  0  0  0
   10.5143   17.1141   18.6953 H   0  0  0  0  0  0
    9.8950   19.3595   16.4453 H   0  0  0  0  0  0
   11.3013   20.4132   16.8178 H   0  0  0  0  0  0
   12.5486   18.5885   15.7670 H   0  0  0  0  0  0
   12.7333   16.7513   17.9039 H   0  0  0  0  0  0
   13.3804   24.0087   15.9832 H   0  0  0  0  0  0
   14.9681   24.3192   15.2025 H   0  0  0  0  0  0
   11.9821   22.3876   15.1345 H   0  0  0  0  0  0
   11.4621   20.5491   13.5907 H   0  0  0  0  0  0
   13.3158   19.2356   12.5247 H   0  0  0  0  0  0
   15.5878   20.2414   12.5247 H   0  0  0  0  0  0
   16.1178   22.1442   14.0623 H   0  0  0  0  0  0
   23.6079   29.7806   14.7735 H   0  0  0  0  0  0
   23.6327   27.9926   14.6022 H   0  0  0  0  0  0
   23.1185   28.7393   16.1529 H   0  0  0  0  0  0
   10.1245   16.6605   14.1786 H   0  0  0  0  0  0
   11.7280   17.4595   14.0487 H   0  0  0  0  0  0
   10.2643   18.4365   14.4087 H   0  0  0  0  0  0
   12.7636   18.5656   21.6188 H   0  0  0  0  0  0
   12.3579   19.8103   20.3889 H   0  0  0  0  0  0
  1  2  2  0  0  0
  1  6  1  0  0  0
  1 38  1  0  0  0
  2  3  1  0  0  0
  2 43  1  0  0  0
  3  4  2  0  0  0
  3 44  1  0  0  0
  4  5  1  0  0  0
  4  7  1  0  0  0
  5  6  2  0  0  0
  5 45  1  0  0  0
  6 46  1  0  0  0
  7  8  2  0  0  0
  7  9  2  0  0  0
  7 10  1  0  0  0
 10 11  1  0  0  0
 10 15  1  0  0  0
 11 12  1  0  0  0
 11 47  1  0  0  0
 11 48  1  0  0  0
 12 13  1  0  0  0
 12 14  1  0  0  0
 12 49  1  0  0  0
 13 50  1  0  0  0
 13 51  1  0  0  0
 13 52  1  0  0  0
 14 53  1  0  0  0
 14 54  1  0  0  0
 14 55  1  0  0  0
 15 16  1  0  0  0
 15 56  1  0  0  0
 15 57  1  0  0  0
 16 17  1  0  0  0
 16 18  1  0  0  0
 16 58  1  0  0  0
 17 59  1  0  0  0
 18 19  1  0  0  0
 18 31  1  0  0  0
 18 60  1  0  0  0
 19 20  1  0  0  0
 19 61  1  0  0  0
 20 21  2  0  0  0
 20 22  1  0  0  0
 22 23  1  0  0  0
 23 24  1  0  0  0
 23 30  1  0  0  0
 23 62  1  0  0  0
 24 42  1  0  0  0
 24 63  1  0  0  0
 24 64  1  0  0  0
 25 26  1  0  0  0
 25 42  1  0  0  0
 26 27  1  0  0  0
 26 30  1  0  0  0
 26 65  1  0  0  0
 27 28  1  0  0  0
 28 29  1  0  0  0
 28 66  1  0  0  0
 28 67  1  0  0  0
 29 30  1  0  0  0
 29 40  1  0  0  0
 29 68  1  0  0  0
 30 69  1  0  0  0
 31 37  1  0  0  0
 31 70  1  0  0  0
 31 71  1  0  0  0
 32 33  2  0  0  0
 32 37  1  0  0  0
 32 72  1  0  0  0
 33 34  1  0  0  0
 33 73  1  0  0  0
 34 35  2  0  0  0
 34 74  1  0  0  0
 35 36  1  0  0  0
 35 75  1  0  0  0
 36 37  2  0  0  0
 36 76  1  0  0  0
 38 39  1  0  0  0
 39 77  1  0  0  0
 39 78  1  0  0  0
 39 79  1  0  0  0
 40 41  1  0  0  0
 41 80  1  0  0  0
 41 81  1  0  0  0
 41 82  1  0  0  0
 42 83  1  0  0  0
 42 84  1  0  0  0
M  END
> <s_m_source_file>
../5dgu_ligand.sdf

> <i_m_source_file_index>
1

> <s_epik_input>
W0NIM11PYzFbY0hdW2NIXWMoW2NIXVtjSF0xKVMoPU8pKD1PKU4oW0NIMl1bQ0hdKFtDSDNdKVtDSDNdKVtDSDJdW0NAQEhdKFtPSF0pW0NASF0oW0NIMl1jMltjSF1bY0hdW2NIXVtjSF1bY0hdMilbTkhdQyg9TylPW0NAQEhdKFtDSDJdW0NIMl1PMylbQ0BASF0oW0NAQEhdMzQpW0NASF0oW0NIMl1PNClPW0NIM10=

> <s_epik_cmdline>
J2VwaWtfYXBwJywgJy1pbWFlJywgJ2xpZ2FuZF9wcm8ubWFlJywgJy1vbWFlJywgJ2xpZ2FuZF9wcmVwLm1hZScsICctbXMnLCAnMScsICctcGgnLCAnNycsICctcGh0JywgJzAuNScsICctbnQn

> <r_lp_tautomer_probability>
1

> <r_epik_Ionization_Penalty>
  0.0000

> <r_epik_Ionization_Penalty_Charging>
  0.0000

> <r_epik_Ionization_Penalty_Neutral>
  0.0000

> <r_epik_State_Penalty>
 -0.0000

> <r_epik_Charging_Adjusted_Penalty>
0

> <i_epik_Tot_Q>
0

> <i_epik_Tot_abs_Q>
0

> <s_epik_Chemistry_Notes>
This compound has an ester and may undergo hydrolysis at high or low pH. This compound contains an acetal/aminal-like group ( X-CH(R)-Y where X, Y are N, S, or O) that may be acid/base labile, releasing an aldehyde.

$$$$
