5dgw_ligand
                    3D
 Schrodinger Suite 2020-3.
 89 92  0  0  1  0            999 V2000
   20.9280   27.6140   14.7050 C   0  0  0  0  0  0
   21.5240   26.5320   15.3590 C   0  0  0  0  0  0
   20.7380   25.4540   15.7580 C   0  0  0  0  0  0
   19.3680   25.4620   15.5400 C   0  0  0  0  0  0
   18.8000   26.4980   14.8020 C   0  0  0  0  0  0
   19.5710   27.5970   14.4110 C   0  0  0  0  0  0
   18.3750   24.0780   15.9550 S   0  0  0  0  0  0
   17.3050   23.9720   14.9120 O   0  0  0  0  0  0
   19.2360   22.8470   15.9650 O   0  0  0  0  0  0
   17.6930   24.1800   17.4330 N   0  0  1  0  0  0
   18.6360   24.5200   18.4830 C   0  0  0  0  0  0
   18.3490   23.7730   19.7910 C   0  0  0  0  0  0
   18.3490   22.2520   19.6120 C   0  0  0  0  0  0
   19.3910   24.1550   20.8530 C   0  0  0  0  0  0
   16.4560   24.9320   17.4660 C   0  0  0  0  0  0
   15.2790   24.0520   17.8690 C   0  0  1  0  0  0
   14.1090   24.8320   18.1130 O   0  0  0  0  0  0
   14.9900   22.9080   16.8920 C   0  0  1  0  0  0
   14.1310   21.9330   17.5780 N   0  0  0  0  0  0
   14.3320   20.6190   17.6930 C   0  0  0  0  0  0
   15.3780   20.0800   17.3370 O   0  0  0  0  0  0
   13.2950   19.9090   18.2250 O   0  0  0  0  0  0
   13.5390   18.5040   18.3270 C   0  0  2  0  0  0
   12.5550   18.6510   20.5990 C   0  0  0  0  0  0
   11.3610   17.9840   20.1980 O   0  0  0  0  0  0
   11.1220   17.9720   18.8050 C   0  0  1  0  0  0
   10.5530   19.2020   18.3460 O   0  0  0  0  0  0
   10.6170   19.1660   16.9270 C   0  0  0  0  0  0
   11.7640   18.2380   16.5490 C   0  0  1  0  0  0
   12.2990   17.7440   17.8970 C   0  0  1  0  0  0
   14.2160   23.3950   15.6580 C   0  0  0  0  0  0
   12.5090   21.8900   14.5450 C   0  0  0  0  0  0
   12.1530   20.8070   13.7400 C   0  0  0  0  0  0
   13.1440   20.0650   13.1060 C   0  0  0  0  0  0
   14.4860   20.3860   13.2990 C   0  0  0  0  0  0
   14.8350   21.4620   14.1190 C   0  0  0  0  0  0
   13.8480   22.2120   14.7440 C   0  0  0  0  0  0
   21.6950   28.6950   14.3930 O   0  0  0  0  0  0
   22.9410   28.6240   15.0930 C   0  0  0  0  0  0
   13.7800   18.2000   19.8080 C   0  0  0  0  0  0
   11.1580   17.0920   15.8420 N   0  3  0  0  0  0
   10.7470   17.4690   14.4830 C   0  0  0  0  0  0
   10.7310   16.2140   13.5920 C   0  0  0  0  0  0
   22.5962   26.5320   15.5553 H   0  0  0  0  0  0
   21.2029   24.5971   16.2455 H   0  0  0  0  0  0
   17.7462   26.4515   14.5272 H   0  0  0  0  0  0
   19.1117   28.4315   13.8811 H   0  0  0  0  0  0
   19.6545   24.2593   18.1596 H   0  0  0  0  0  0
   18.5817   25.5991   18.6893 H   0  0  0  0  0  0
   17.3403   24.0705   20.1136 H   0  0  0  0  0  0
   17.6043   21.9722   18.8523 H   0  0  0  0  0  0
   18.0962   21.7703   20.5681 H   0  0  0  0  0  0
   19.3465   21.9211   19.2871 H   0  0  0  0  0  0
   19.3956   25.2469   20.9860 H   0  0  0  0  0  0
   20.3869   23.8212   20.5263 H   0  0  0  0  0  0
   19.1366   23.6704   21.8072 H   0  0  0  0  0  0
   16.5442   25.7511   18.1949 H   0  0  0  0  0  0
   16.2537   25.3491   16.4684 H   0  0  0  0  0  0
   15.5215   23.6083   18.8459 H   0  0  0  0  0  0
   14.1547   25.6934   18.7956 H   0  0  0  0  0  0
   15.9402   22.4442   16.5887 H   0  0  0  0  0  0
   13.2053   22.2659   18.0701 H   0  0  0  0  0  0
   14.3932   18.2697   17.6748 H   0  0  0  0  0  0
   12.4382   19.7343   20.4479 H   0  0  0  0  0  0
   12.7490   18.4479   21.6626 H   0  0  0  0  0  0
   10.4170   17.1279   18.7834 H   0  0  0  0  0  0
    9.6653   18.7866   16.5266 H   0  0  0  0  0  0
   10.7982   20.1805   16.5423 H   0  0  0  0  0  0
   12.5338   18.6880   15.9049 H   0  0  0  0  0  0
   12.6328   16.6959   17.9041 H   0  0  0  0  0  0
   13.2913   23.8966   15.9796 H   0  0  0  0  0  0
   14.8384   24.1023   15.0903 H   0  0  0  0  0  0
   11.7323   22.4882   15.0215 H   0  0  0  0  0  0
   11.1034   20.5439   13.6087 H   0  0  0  0  0  0
   12.8707   19.2322   12.4580 H   0  0  0  0  0  0
   15.2631   19.7981   12.8106 H   0  0  0  0  0  0
   15.8851   21.7133   14.2684 H   0  0  0  0  0  0
   23.5558   29.4995   14.8370 H   0  0  0  0  0  0
   23.4724   27.7054   14.8034 H   0  0  0  0  0  0
   22.7526   28.6125   16.1767 H   0  0  0  0  0  0
   13.9356   17.1191   19.9398 H   0  0  0  0  0  0
   14.6717   18.7436   20.1535 H   0  0  0  0  0  0
   11.8902   16.2739   15.7747 H   0  0  0  0  0  0
   10.2722   16.7466   16.3952 H   0  0  0  0  0  0
    9.7408   17.9123   14.5140 H   0  0  0  0  0  0
   11.4583   18.2022   14.0749 H   0  0  0  0  0  0
   10.4237   16.4917   12.5730 H   0  0  0  0  0  0
   10.0202   15.4818   14.0027 H   0  0  0  0  0  0
   11.7377   15.7716   13.5636 H   0  0  0  0  0  0
  1  2  2  0  0  0
  1  6  1  0  0  0
  1 38  1  0  0  0
  2  3  1  0  0  0
  2 44  1  0  0  0
  3  4  2  0  0  0
  3 45  1  0  0  0
  4  5  1  0  0  0
  4  7  1  0  0  0
  5  6  2  0  0  0
  5 46  1  0  0  0
  6 47  1  0  0  0
  7  8  2  0  0  0
  7  9  2  0  0  0
  7 10  1  0  0  0
 10 11  1  0  0  0
 10 15  1  0  0  0
 11 12  1  0  0  0
 11 48  1  0  0  0
 11 49  1  0  0  0
 12 13  1  0  0  0
 12 14  1  0  0  0
 12 50  1  0  0  0
 13 51  1  0  0  0
 13 52  1  0  0  0
 13 53  1  0  0  0
 14 54  1  0  0  0
 14 55  1  0  0  0
 14 56  1  0  0  0
 15 16  1  0  0  0
 15 57  1  0  0  0
 15 58  1  0  0  0
 16 17  1  0  0  0
 16 18  1  0  0  0
 16 59  1  0  0  0
 17 60  1  0  0  0
 18 19  1  0  0  0
 18 31  1  0  0  0
 18 61  1  0  0  0
 19 20  1  0  0  0
 19 62  1  0  0  0
 20 21  2  0  0  0
 20 22  1  0  0  0
 22 23  1  0  0  0
 23 30  1  0  0  0
 23 40  1  0  0  0
 23 63  1  0  0  0
 24 25  1  0  0  0
 24 40  1  0  0  0
 24 64  1  0  0  0
 24 65  1  0  0  0
 25 26  1  0  0  0
 26 27  1  0  0  0
 26 30  1  0  0  0
 26 66  1  0  0  0
 27 28  1  0  0  0
 28 29  1  0  0  0
 28 67  1  0  0  0
 28 68  1  0  0  0
 29 30  1  0  0  0
 29 41  1  0  0  0
 29 69  1  0  0  0
 30 70  1  0  0  0
 31 37  1  0  0  0
 31 71  1  0  0  0
 31 72  1  0  0  0
 32 33  2  0  0  0
 32 37  1  0  0  0
 32 73  1  0  0  0
 33 34  1  0  0  0
 33 74  1  0  0  0
 34 35  2  0  0  0
 34 75  1  0  0  0
 35 36  1  0  0  0
 35 76  1  0  0  0
 36 37  2  0  0  0
 36 77  1  0  0  0
 38 39  1  0  0  0
 39 78  1  0  0  0
 39 79  1  0  0  0
 39 80  1  0  0  0
 40 81  1  0  0  0
 40 82  1  0  0  0
 41 42  1  0  0  0
 41 83  1  0  0  0
 41 84  1  0  0  0
 42 43  1  0  0  0
 42 85  1  0  0  0
 42 86  1  0  0  0
 43 87  1  0  0  0
 43 88  1  0  0  0
 43 89  1  0  0  0
M  CHG  1  41   1
M  END
> <s_m_source_file>
../5dgw_ligand.sdf

> <i_m_source_file_index>
1

> <s_epik_input>
W0NIM11PYzFbY0hdW2NIXWMoW2NIXVtjSF0xKVMoPU8pKD1PKU4oW0NIMl1bQ0hdKFtDSDNdKVtDSDNdKVtDSDJdW0NAQEhdKFtPSF0pW0NASF0oW0NIMl1jMltjSF1bY0hdW2NIXVtjSF1bY0hdMilbTkhdQyg9TylPW0NAQEhdKFtDSDJdW0NIMl1PMylbQ0BASF0oW0NAQEhdMzQpW0NASF0oW0NIMl1PNClbTkgyK11bQ0gyXVtDSDNd

> <s_epik_cmdline>
J2VwaWtfYXBwJywgJy1pbWFlJywgJ2xpZ2FuZF9wcm8ubWFlJywgJy1vbWFlJywgJ2xpZ2FuZF9wcmVwLm1hZScsICctbXMnLCAnMScsICctcGgnLCAnNycsICctcGh0JywgJzAuNScsICctbnQn

> <r_lp_tautomer_probability>
1

> <r_epik_Ionization_Penalty>
  0.0093

> <r_epik_Ionization_Penalty_Charging>
  0.0093

> <r_epik_Ionization_Penalty_Neutral>
  0.0000

> <r_epik_State_Penalty>
 -0.0000

> <r_epik_Charging_Adjusted_Penalty>
0.0092556720534788

> <i_epik_Tot_Q>
1

> <i_epik_Tot_abs_Q>
1

> <s_epik_Chemistry_Notes>
This compound has an ester and may undergo hydrolysis at high or low pH. This compound contains an acetal/aminal-like group ( X-CH(R)-Y where X, Y are N, S, or O) that may be acid/base labile, releasing an aldehyde.

$$$$
