5dhg_ligand
                    3D
 Schrodinger Suite 2020-3.
 66 69  0  0  1  0            999 V2000
  -12.0180   32.7290    3.3000 Cl  0  0  0  0  0  0
  -10.3440   33.3070    3.4120 C   0  0  0  0  0  0
   -9.8840   33.8500    4.6000 C   0  0  0  0  0  0
   -8.6200   34.3010    4.6970 C   0  0  0  0  0  0
   -7.7650   34.2240    3.6500 C   0  0  0  0  0  0
   -8.1820   33.6840    2.4340 C   0  0  0  0  0  0
   -7.0060   33.6270    1.0980 Cl  0  0  0  0  0  0
   -9.4940   33.2010    2.2840 C   0  0  0  0  0  0
  -10.1130   32.5650    0.9720 C   0  0  2  0  0  0
   -9.2790   31.5720    0.2530 C   0  0  0  0  0  0
   -9.9750   31.1040   -0.9830 C   0  0  0  0  0  0
  -10.5160   33.6640   -0.0010 C   0  0  0  0  0  0
  -11.1240   32.9590   -1.2750 C   0  0  0  0  0  0
  -10.2910   32.0440   -1.8210 N   0  3  2  0  0  0
  -11.0160   31.4930   -2.7390 C   0  0  0  0  0  0
  -10.1140   31.1220   -3.9360 C   0  0  0  0  0  0
  -10.9820   30.3410   -4.9590 C   0  0  0  0  0  0
  -10.0660   29.7830   -6.0130 N   0  0  0  0  0  0
  -10.1460   28.3360   -6.4240 C   0  0  0  0  0  0
  -10.9670   27.7340   -5.8450 O   0  0  0  0  0  0
   -7.2130   27.1270   -8.4110 C   0  0  0  0  0  0
   -8.1210   27.7230   -9.5460 C   0  0  0  0  0  0
   -9.4850   27.9960   -8.8590 C   0  0  0  0  0  0
   -9.3390   27.4270   -7.4640 C   0  0  1  0  0  0
   -7.9230   27.4210   -7.1930 N   0  0  2  0  0  0
   -7.4770   28.6510   -6.6010 C   0  0  0  0  0  0
   -7.2390   28.7260   -5.0850 C   0  0  0  0  0  0
   -7.2950   27.6570   -4.3340 C   0  0  0  0  0  0
   -7.0410   27.7850   -2.8240 C   0  0  0  0  0  0
   -6.7710   28.9510   -2.2990 C   0  0  0  0  0  0
   -6.7040   30.1940   -3.1850 C   0  0  0  0  0  0
   -6.9190   30.0910   -4.4810 C   0  0  0  0  0  0
  -10.5494   33.9124    5.4611 H   0  0  0  0  0  0
   -8.2780   34.7364    5.6359 H   0  0  0  0  0  0
   -6.7429   34.5869    3.7585 H   0  0  0  0  0  0
  -10.9745   31.9562    1.2838 H   0  0  0  0  0  0
   -8.3208   32.0331   -0.0285 H   0  0  0  0  0  0
   -9.0918   30.7079    0.9074 H   0  0  0  0  0  0
   -9.3255   30.4016   -1.5259 H   0  0  0  0  0  0
  -10.9121   30.5983   -0.7070 H   0  0  0  0  0  0
  -11.2630   34.3177    0.4731 H   0  0  0  0  0  0
   -9.6299   34.2565   -0.2724 H   0  0  0  0  0  0
  -12.0541   32.4409   -0.9985 H   0  0  0  0  0  0
  -11.3402   33.7149   -2.0443 H   0  0  0  0  0  0
   -9.3463   32.4821   -2.1754 H   0  0  0  0  0  0
  -11.4902   30.5858   -2.3364 H   0  0  0  0  0  0
  -11.7937   32.1992   -3.0652 H   0  0  0  0  0  0
   -9.7168   32.0398   -4.3941 H   0  0  0  0  0  0
   -9.2798   30.4961   -3.5864 H   0  0  0  0  0  0
  -11.5108   29.5254   -4.4440 H   0  0  0  0  0  0
  -11.7149   31.0232   -5.4144 H   0  0  0  0  0  0
   -9.3230   30.4341   -6.4967 H   0  0  0  0  0  0
   -7.0945   26.0445   -8.5667 H   0  0  0  0  0  0
   -6.2259   27.6116   -8.4387 H   0  0  0  0  0  0
   -7.6663   28.6474   -9.9318 H   0  0  0  0  0  0
   -8.2146   26.9919  -10.3625 H   0  0  0  0  0  0
   -9.6750   29.0793   -8.8387 H   0  0  0  0  0  0
  -10.2859   27.4938   -9.4215 H   0  0  0  0  0  0
   -9.6686   26.3792   -7.4042 H   0  0  0  0  0  0
   -6.5098   28.9390   -7.0387 H   0  0  0  0  0  0
   -8.2172   29.4411   -6.7954 H   0  0  0  0  0  0
   -7.5195   26.6855   -4.7744 H   0  0  0  0  0  0
   -7.0861   26.9005   -2.1886 H   0  0  0  0  0  0
   -6.5933   29.0369   -1.2270 H   0  0  0  0  0  0
   -6.4785   31.1655   -2.7452 H   0  0  0  0  0  0
   -6.8687   30.9745   -5.1174 H   0  0  0  0  0  0
  1  2  1  0  0  0
  2  3  2  0  0  0
  2  8  1  0  0  0
  3  4  1  0  0  0
  3 33  1  0  0  0
  4  5  2  0  0  0
  4 34  1  0  0  0
  5  6  1  0  0  0
  5 35  1  0  0  0
  6  7  1  0  0  0
  6  8  2  0  0  0
  8  9  1  0  0  0
  9 10  1  0  0  0
  9 12  1  0  0  0
  9 36  1  0  0  0
 10 11  1  0  0  0
 10 37  1  0  0  0
 10 38  1  0  0  0
 11 14  1  0  0  0
 11 39  1  0  0  0
 11 40  1  0  0  0
 12 13  1  0  0  0
 12 41  1  0  0  0
 12 42  1  0  0  0
 13 14  1  0  0  0
 13 43  1  0  0  0
 13 44  1  0  0  0
 14 15  1  0  0  0
 14 45  1  0  0  0
 15 16  1  0  0  0
 15 46  1  0  0  0
 15 47  1  0  0  0
 16 17  1  0  0  0
 16 48  1  0  0  0
 16 49  1  0  0  0
 17 18  1  0  0  0
 17 50  1  0  0  0
 17 51  1  0  0  0
 18 19  1  0  0  0
 18 52  1  0  0  0
 19 20  2  0  0  0
 19 24  1  0  0  0
 21 22  1  0  0  0
 21 25  1  0  0  0
 21 53  1  0  0  0
 21 54  1  0  0  0
 22 23  1  0  0  0
 22 55  1  0  0  0
 22 56  1  0  0  0
 23 24  1  0  0  0
 23 57  1  0  0  0
 23 58  1  0  0  0
 24 25  1  0  0  0
 24 59  1  0  0  0
 25 26  1  0  0  0
 26 27  1  0  0  0
 26 60  1  0  0  0
 26 61  1  0  0  0
 27 28  2  0  0  0
 27 32  1  0  0  0
 28 29  1  0  0  0
 28 62  1  0  0  0
 29 30  2  0  0  0
 29 63  1  0  0  0
 30 31  1  0  0  0
 30 64  1  0  0  0
 31 32  2  0  0  0
 31 65  1  0  0  0
 32 66  1  0  0  0
M  CHG  1  14   1
M  END
> <s_m_source_file>
../5dhg_ligand.sdf

> <i_m_source_file_index>
1

> <s_epik_input>
Q2xjMVtjSF1bY0hdW2NIXWMoQ2wpYzFbQ0BASF0yW0NIMl1bQ0gyXVtOQEgrXShbQ0gyXVtDSDJdMilbQ0gyXVtDSDJdW0NIMl1bTkhdQyg9TylbQ0BIXTNbQ0gyXVtDSDJdW0NIMl1bTkBIK10zW0NIMl1jNFtjSF1bY0hdW2NIXVtjSF1bY0hdNA==

> <s_epik_cmdline>
J2VwaWtfYXBwJywgJy1pbWFlJywgJ2xpZ2FuZF9wcm8ubWFlJywgJy1vbWFlJywgJ2xpZ2FuZF9wcmVwLm1hZScsICctbXMnLCAnMScsICctcGgnLCAnNycsICctcGh0JywgJzAuNScsICctbnQn

> <r_epik_Ionization_Penalty>
  0.2334

> <r_epik_Ionization_Penalty_Charging>
  0.0010

> <r_epik_Ionization_Penalty_Neutral>
  0.2324

> <r_epik_State_Penalty>
  0.2231

> <r_epik_Charging_Adjusted_Penalty>
0.224104994747762

> <i_epik_Tot_Q>
1

> <i_epik_Tot_abs_Q>
1

$$$$
