5dhh_ligand
                    3D
 Schrodinger Suite 2020-3.
 58 61  0  0  1  0            999 V2000
  -12.1180   31.2110    2.5010 Cl  0  0  0  0  0  0
  -10.4350   31.4040    2.7020 C   0  0  0  0  0  0
   -9.9740   31.8080    3.9470 C   0  0  0  0  0  0
   -8.6170   31.9860    4.1580 C   0  0  0  0  0  0
   -7.7270   31.7520    3.1240 C   0  0  0  0  0  0
   -8.1680   31.3470    1.8720 C   0  0  0  0  0  0
   -6.8920   31.0990    0.6720 Cl  0  0  0  0  0  0
   -9.5500   31.1630    1.6490 C   0  0  0  0  0  0
  -10.0740   30.7600    0.4000 C   0  0  1  0  0  0
   -9.6520   31.6640   -0.7150 C   0  0  0  0  0  0
  -10.2230   31.2180   -2.0440 C   0  0  0  0  0  0
   -9.7090   29.3030    0.0550 C   0  0  0  0  0  0
  -10.3110   28.9590   -1.3130 C   0  0  0  0  0  0
   -9.7700   29.8590   -2.3610 N   0  3  1  0  0  0
  -10.3540   29.5430   -3.6760 C   0  0  0  0  0  0
  -10.0660   28.1990   -4.3600 C   0  0  2  0  0  0
   -8.5520   28.0630   -4.3850 C   0  0  0  0  0  0
   -7.9480   26.7930   -5.0240 C   0  0  2  0  0  0
   -6.5270   26.7260   -4.8100 O   0  0  0  0  0  0
   -8.2660   26.6020   -6.3760 C   0  0  0  0  0  0
   -7.1150   26.1790   -7.0300 C   0  0  0  0  0  0
   -7.1120   25.9200   -8.3930 C   0  0  0  0  0  0
   -8.2760   26.0920   -9.1310 C   0  0  0  0  0  0
   -9.4370   26.5240   -8.4960 C   0  0  0  0  0  0
  -10.6050   26.6920   -9.2550 C   0  0  0  0  0  0
   -9.4300   26.7840   -7.1170 C   0  0  0  0  0  0
  -10.6860   27.1980   -6.7060 C   0  0  0  0  0  0
  -10.7470   28.3530   -5.7210 C   0  0  0  0  0  0
  -10.6798   31.9852    4.7585 H   0  0  0  0  0  0
   -8.2517   32.3086    5.1330 H   0  0  0  0  0  0
   -6.6594   31.8884    3.2964 H   0  0  0  0  0  0
  -11.1532   30.8835    0.5737 H   0  0  0  0  0  0
  -10.0049   32.6859   -0.5121 H   0  0  0  0  0  0
   -8.5547   31.6636   -0.7921 H   0  0  0  0  0  0
  -11.3218   31.2280   -1.9929 H   0  0  0  0  0  0
   -9.8866   31.9031   -2.8361 H   0  0  0  0  0  0
   -8.6146   29.1977    0.0199 H   0  0  0  0  0  0
  -10.1176   28.6307    0.8238 H   0  0  0  0  0  0
  -10.0621   27.9193   -1.5721 H   0  0  0  0  0  0
  -11.4041   29.0751   -1.2723 H   0  0  0  0  0  0
   -8.6750   29.7598   -2.3957 H   0  0  0  0  0  0
  -11.4515   29.5668   -3.6051 H   0  0  0  0  0  0
  -10.0181   30.2859   -4.4145 H   0  0  0  0  0  0
  -10.4346   27.2778   -3.8852 H   0  0  0  0  0  0
   -8.1179   28.9010   -4.9500 H   0  0  0  0  0  0
   -8.1656   28.0759   -3.3552 H   0  0  0  0  0  0
   -8.3929   25.8907   -4.5791 H   0  0  0  0  0  0
   -6.1165   26.8567   -3.7979 H   0  0  0  0  0  0
   -6.1952   26.0480   -6.4600 H   0  0  0  0  0  0
   -6.1988   25.5825   -8.8832 H   0  0  0  0  0  0
   -8.2804   25.8897  -10.2021 H   0  0  0  0  0  0
  -10.3995   26.4376  -10.3053 H   0  0  0  0  0  0
  -10.9375   27.7385   -9.1894 H   0  0  0  0  0  0
  -11.3937   26.0316   -8.8653 H   0  0  0  0  0  0
  -11.2683   27.5255   -7.5799 H   0  0  0  0  0  0
  -11.2041   26.3626   -6.2123 H   0  0  0  0  0  0
  -11.8217   28.5361   -5.5746 H   0  0  0  0  0  0
  -10.3007   29.2014   -6.2605 H   0  0  0  0  0  0
  1  2  1  0  0  0
  2  3  2  0  0  0
  2  8  1  0  0  0
  3  4  1  0  0  0
  3 29  1  0  0  0
  4  5  2  0  0  0
  4 30  1  0  0  0
  5  6  1  0  0  0
  5 31  1  0  0  0
  6  7  1  0  0  0
  6  8  2  0  0  0
  8  9  1  0  0  0
  9 10  1  0  0  0
  9 12  1  0  0  0
  9 32  1  0  0  0
 10 11  1  0  0  0
 10 33  1  0  0  0
 10 34  1  0  0  0
 11 14  1  0  0  0
 11 35  1  0  0  0
 11 36  1  0  0  0
 12 13  1  0  0  0
 12 37  1  0  0  0
 12 38  1  0  0  0
 13 14  1  0  0  0
 13 39  1  0  0  0
 13 40  1  0  0  0
 14 15  1  0  0  0
 14 41  1  0  0  0
 15 16  1  0  0  0
 15 42  1  0  0  0
 15 43  1  0  0  0
 16 17  1  0  0  0
 16 28  1  0  0  0
 16 44  1  0  0  0
 17 18  1  0  0  0
 17 45  1  0  0  0
 17 46  1  0  0  0
 18 19  1  0  0  0
 18 20  1  0  0  0
 18 47  1  0  0  0
 19 48  1  0  0  0
 20 21  2  0  0  0
 20 26  1  0  0  0
 21 22  1  0  0  0
 21 49  1  0  0  0
 22 23  2  0  0  0
 22 50  1  0  0  0
 23 24  1  0  0  0
 23 51  1  0  0  0
 24 25  1  0  0  0
 24 26  2  0  0  0
 25 52  1  0  0  0
 25 53  1  0  0  0
 25 54  1  0  0  0
 26 27  1  0  0  0
 27 28  1  0  0  0
 27 55  1  0  0  0
 27 56  1  0  0  0
 28 57  1  0  0  0
 28 58  1  0  0  0
M  CHG  1  14   1
M  END
> <s_m_source_file>
../5dhh_ligand.sdf

> <i_m_source_file_index>
1

> <s_epik_input>
Q2xjMVtjSF1bY0hdW2NIXWMoQ2wpYzFbQ0BIXTJbQ0gyXVtDSDJdW05AQEgrXShbQ0gyXVtDSDJdMilbQ0gyXVtDQEhdKFtDSDJdW0NAQEhdM1tPSF0pW0NIMl1bQ0gyXWMoYzM0KWMoW0NIM10pW2NIXVtjSF1bY0hdNA==

> <s_epik_cmdline>
J2VwaWtfYXBwJywgJy1pbWFlJywgJ2xpZ2FuZF9wcm8ubWFlJywgJy1vbWFlJywgJ2xpZ2FuZF9wcmVwLm1hZScsICctbXMnLCAnMScsICctcGgnLCAnNycsICctcGh0JywgJzAuNScsICctbnQn

> <r_lp_tautomer_probability>
1

> <r_epik_Ionization_Penalty>
  0.0019

> <r_epik_Ionization_Penalty_Charging>
  0.0019

> <r_epik_Ionization_Penalty_Neutral>
  0.0000

> <r_epik_State_Penalty>
 -0.0000

> <r_epik_Charging_Adjusted_Penalty>
0.00193521334990892

> <i_epik_Tot_Q>
1

> <i_epik_Tot_abs_Q>
1

$$$$
