5dia_ligand
                    3D
 Schrodinger Suite 2020-3.
 54 58  0  0  1  0            999 V2000
   21.5690  -34.2560    4.2810 C   0  0  0  0  0  0
   23.6920  -38.8930    1.8920 C   0  0  0  0  0  0
   21.1960  -34.0680    5.7290 C   0  0  0  0  0  0
   23.5950  -38.2780    4.1550 C   0  0  0  0  0  0
   23.7510  -39.2420    3.2110 C   0  0  0  0  0  0
   23.4510  -37.6010    1.5470 C   0  0  0  0  0  0
   23.3210  -36.7160    2.4820 N   0  3  0  0  0  0
   23.3880  -36.9910    3.7360 C   0  0  0  0  0  0
   23.2630  -35.9770    4.6520 N   0  0  0  0  0  0
   23.0270  -34.6290    4.1900 C   0  0  2  0  0  0
   22.0030  -32.9010    6.2520 C   0  0  0  0  0  0
   23.5040  -33.1650    6.2200 C   0  0  1  0  0  0
   23.9260  -33.5760    4.8280 C   0  0  0  0  0  0
   24.2630  -31.9920    6.6450 N   0  3  0  0  0  0
   23.3920  -37.2070    0.1250 C   0  0  0  0  0  0
   23.0080  -35.9120   -0.3890 C   0  0  0  0  0  0
   22.6050  -34.7110    0.1600 C   0  0  0  0  0  0
   22.3230  -33.6540   -0.6650 C   0  0  0  0  0  0
   22.4540  -33.7850   -1.9550 N   0  0  0  0  0  0
   22.8120  -34.8940   -2.4990 C   0  0  0  0  0  0
   23.1170  -36.0000   -1.7550 C   0  0  0  0  0  0
   23.5160  -37.2430   -2.0280 N   0  0  0  0  0  0
   23.6770  -37.9400   -0.8820 N   0  3  0  0  0  0
   21.8890  -32.3510   -0.1360 C   0  0  0  0  0  0
   22.0110  -32.0160    1.2010 C   0  0  0  0  0  0
   21.5900  -30.7860    1.6090 C   0  0  0  0  0  0
   21.0760  -29.9270    0.6810 C   0  0  0  0  0  0
   20.9730  -30.2680   -0.5670 N   0  0  0  0  0  0
   21.3590  -31.4180   -0.9970 C   0  0  0  0  0  0
   20.9546  -35.0577    3.8452 H   0  0  0  0  0  0
   21.3923  -33.3192    3.7322 H   0  0  0  0  0  0
   23.8376  -39.6477    1.1192 H   0  0  0  0  0  0
   20.1189  -33.8585    5.8059 H   0  0  0  0  0  0
   21.4324  -34.9839    6.2904 H   0  0  0  0  0  0
   23.6335  -38.5221    5.2166 H   0  0  0  0  0  0
   23.9207  -40.2787    3.5018 H   0  0  0  0  0  0
   23.3410  -36.1833    5.7297 H   0  0  0  0  0  0
   23.3143  -34.6984    3.1305 H   0  0  0  0  0  0
   21.8033  -32.0118    5.6360 H   0  0  0  0  0  0
   21.7183  -32.6962    7.2946 H   0  0  0  0  0  0
   23.7511  -33.9573    6.9420 H   0  0  0  0  0  0
   24.9517  -33.9663    4.9029 H   0  0  0  0  0  0
   23.9238  -32.6675    4.2078 H   0  0  0  0  0  0
   23.9498  -31.7000    7.6582 H   0  0  0  0  0  0
   24.0742  -31.1613    5.9491 H   0  0  0  0  0  0
   25.3367  -32.2313    6.6478 H   0  0  0  0  0  0
   22.5119  -34.6046    1.2408 H   0  0  0  0  0  0
   22.8742  -34.9541   -3.5856 H   0  0  0  0  0  0
   22.4357  -32.7225    1.9141 H   0  0  0  0  0  0
   21.6623  -30.4935    2.6565 H   0  0  0  0  0  0
   20.7460  -28.9364    0.9939 H   0  0  0  0  0  0
   21.2648  -31.6557   -2.0566 H   0  0  0  0  0  0
   23.9990  -38.9809   -0.7310 H   0  0  0  0  0  0
   23.1426  -35.6624    2.2211 H   0  0  0  0  0  0
  1  3  1  0  0  0
  1 10  1  0  0  0
  1 30  1  0  0  0
  1 31  1  0  0  0
  2  5  2  0  0  0
  2  6  1  0  0  0
  2 32  1  0  0  0
  3 11  1  0  0  0
  3 33  1  0  0  0
  3 34  1  0  0  0
  4  5  1  0  0  0
  4  8  2  0  0  0
  4 35  1  0  0  0
  5 36  1  0  0  0
  6  7  2  0  0  0
  6 15  1  0  0  0
  7  8  1  0  0  0
  7 54  1  0  0  0
  8  9  1  0  0  0
  9 10  1  0  0  0
  9 37  1  0  0  0
 10 13  1  0  0  0
 10 38  1  0  0  0
 11 12  1  0  0  0
 11 39  1  0  0  0
 11 40  1  0  0  0
 12 13  1  0  0  0
 12 14  1  0  0  0
 12 41  1  0  0  0
 13 42  1  0  0  0
 13 43  1  0  0  0
 14 44  1  0  0  0
 14 45  1  0  0  0
 14 46  1  0  0  0
 15 16  2  0  0  0
 15 23  1  0  0  0
 16 17  1  0  0  0
 16 21  1  0  0  0
 17 18  2  0  0  0
 17 47  1  0  0  0
 18 19  1  0  0  0
 18 24  1  0  0  0
 19 20  1  0  0  0
 20 21  2  0  0  0
 20 48  1  0  0  0
 21 22  1  0  0  0
 22 23  2  0  0  0
 23 53  1  0  0  0
 24 25  2  0  0  0
 24 29  1  0  0  0
 25 26  1  0  0  0
 25 49  1  0  0  0
 26 27  2  0  0  0
 26 50  1  0  0  0
 27 28  1  0  0  0
 27 51  1  0  0  0
 28 29  2  0  0  0
 29 52  1  0  0  0
M  CHG  3   7   1  14   1  23   1
M  END
> <s_m_source_file>
../5dia_ligand.sdf

> <i_m_source_file_index>
1

> <s_epik_input>
W0NIMl0xW0NAQEhdKFtOSDMrXSlbQ0gyXVtDSDJdW0NIMl1bQ0BASF0xW05IXWMobjIpW2NIXVtjSF1bY0hdYzItYzNubmMoYzM0KVtjSF1bbkhdYyhbY0hdNCktYzVbY0hdW2NIXVtjSF1uW2NIXTU=

> <s_epik_cmdline>
J2VwaWtfYXBwJywgJy1pbWFlJywgJ2xpZ2FuZF9wcm8ubWFlJywgJy1vbWFlJywgJ2xpZ2FuZF9wcmVwLm1hZScsICctbXMnLCAnMScsICctcGgnLCAnNycsICctcGh0JywgJzAuNScsICctbnQn

> <r_epik_Ionization_Penalty>
  0.2901

> <r_epik_Ionization_Penalty_Charging>
  0.2899

> <r_epik_Ionization_Penalty_Neutral>
  0.0002

> <r_epik_State_Penalty>
  0.5630

> <r_epik_Charging_Adjusted_Penalty>
0.852884960671265

> <i_epik_Tot_Q>
3

> <i_epik_Tot_abs_Q>
3

$$$$
