5diq_ligand
                    3D
 Schrodinger Suite 2020-3.
 34 36  0  0  1  0            999 V2000
    3.3950   76.7520   28.5200 C   0  0  0  0  0  0
    2.7650   75.4770   28.4890 C   0  0  0  0  0  0
    2.6440   77.9090   28.1690 C   0  0  0  0  0  0
    0.6840   76.5280   27.7290 C   0  0  0  0  0  0
    4.5810   79.3280   28.5740 C   0  0  0  0  0  0
    5.6660   72.9830   28.2520 C   0  0  0  0  0  0
    6.8800   73.2950   27.5790 C   0  0  0  0  0  0
    5.6630   71.9470   29.2200 C   0  0  0  0  0  0
    8.0630   72.5940   27.8910 C   0  0  0  0  0  0
    6.9450   74.3690   26.5010 C   0  0  0  0  0  0
    6.8520   71.2630   29.5340 C   0  0  0  0  0  0
    8.0470   71.5800   28.8690 C   0  0  0  0  0  0
    4.7580   76.9230   28.8870 C   0  0  0  0  0  0
    3.5010   74.1670   28.8820 C   0  0  0  0  0  0
    1.4260   75.3850   28.0640 C   0  0  0  0  0  0
    1.3040   77.7850   27.7420 C   0  0  0  0  0  0
    3.2410   79.1920   28.1790 C   0  0  0  0  0  0
    5.3470   78.2000   28.9090 C   0  0  0  0  0  0
    4.4930   73.7050   27.9310 O   0  0  0  0  0  0
    8.0720   75.0670   26.3210 O   0  5  0  0  0  0
    5.9750   74.5890   25.7920 O   0  0  0  0  0  0
   -0.3686   76.4388   27.4602 H   0  0  0  0  0  0
    5.0315   80.3194   28.6212 H   0  0  0  0  0  0
    4.7344   71.6788   29.7238 H   0  0  0  0  0  0
    8.9916   72.8371   27.3746 H   0  0  0  0  0  0
    6.8451   70.4841   30.2965 H   0  0  0  0  0  0
    8.9634   71.0411   29.1096 H   0  0  0  0  0  0
    5.3552   76.0515   29.1553 H   0  0  0  0  0  0
    4.0280   74.3147   29.8362 H   0  0  0  0  0  0
    2.7688   73.3532   28.9897 H   0  0  0  0  0  0
    0.9553   74.4044   27.9936 H   0  0  0  0  0  0
    0.7508   78.6680   27.4220 H   0  0  0  0  0  0
    2.6645   80.0681   27.8822 H   0  0  0  0  0  0
    6.3952   78.3137   29.1854 H   0  0  0  0  0  0
  1  2  2  0  0  0
  1  3  1  0  0  0
  1 13  1  0  0  0
  2 14  1  0  0  0
  2 15  1  0  0  0
  3 16  2  0  0  0
  3 17  1  0  0  0
  4 15  2  0  0  0
  4 16  1  0  0  0
  4 22  1  0  0  0
  5 17  2  0  0  0
  5 18  1  0  0  0
  5 23  1  0  0  0
  6  7  2  0  0  0
  6  8  1  0  0  0
  6 19  1  0  0  0
  7  9  1  0  0  0
  7 10  1  0  0  0
  8 11  2  0  0  0
  8 24  1  0  0  0
  9 12  2  0  0  0
  9 25  1  0  0  0
 10 20  1  0  0  0
 10 21  2  0  0  0
 11 12  1  0  0  0
 11 26  1  0  0  0
 12 27  1  0  0  0
 13 18  2  0  0  0
 13 28  1  0  0  0
 14 19  1  0  0  0
 14 29  1  0  0  0
 14 30  1  0  0  0
 15 31  1  0  0  0
 16 32  1  0  0  0
 17 33  1  0  0  0
 18 34  1  0  0  0
M  CHG  1  20  -1
M  END
> <s_m_source_file>
../5diq_ligand.sdf

> <i_m_source_file_index>
1

> <s_epik_input>
W2NIXTFbY0hdW2NIXVtjSF1jKGMxMilbY0hdW2NIXVtjSF1jMltDSDJdT2MzYyhDKD1PKVtPSF0pW2NIXVtjSF1bY0hdW2NIXTM=

> <s_epik_cmdline>
J2VwaWtfYXBwJywgJy1pbWFlJywgJ2xpZ2FuZF9wcm8ubWFlJywgJy1vbWFlJywgJ2xpZ2FuZF9wcmVwLm1hZScsICctbXMnLCAnMScsICctcGgnLCAnNycsICctcGh0JywgJzAuNScsICctbnQn

> <r_lp_tautomer_probability>
1

> <r_epik_Ionization_Penalty>
  0.0011

> <r_epik_Ionization_Penalty_Charging>
  0.0011

> <r_epik_Ionization_Penalty_Neutral>
  0.0000

> <r_epik_State_Penalty>
 -0.0000

> <r_epik_Charging_Adjusted_Penalty>
0.00112949853244914

> <i_epik_Tot_Q>
-1

> <i_epik_Tot_abs_Q>
1

$$$$
