5djp_ligand
                    3D
 Schrodinger Suite 2020-3.
 33 36  0  0  1  0            999 V2000
    3.8620   73.8560   25.4830 C   0  0  0  0  0  0
    2.6430   74.2770   26.0530 C   0  0  0  0  0  0
    4.4430   72.6310   25.8040 C   0  0  0  0  0  0
    0.7330   75.5860   25.2150 C   0  0  0  0  0  0
    2.5910   72.1070   27.2410 C   0  0  0  0  0  0
    7.0910   73.7420   23.6300 C   0  0  0  0  0  0
    2.0030   78.0660   25.5980 C   0  0  0  0  0  0
    4.0120   76.9930   26.4590 C   0  0  0  0  0  0
    0.0520   76.7660   24.8870 C   0  0  0  0  0  0
    0.6950   78.0010   25.0660 C   0  0  0  0  0  0
    2.6150   79.3280   25.7840 C   0  0  0  0  0  0
    4.6220   78.2410   26.6230 C   0  0  0  0  0  0
    3.9100   79.4130   26.3190 C   0  0  0  0  0  0
    4.8650   74.4750   24.5380 C   0  0  0  0  0  0
    2.0450   75.6120   25.7290 C   0  0  0  0  0  0
    2.0150   73.3640   26.9370 C   0  0  0  0  0  0
    5.6090   72.5160   25.1420 N   0  0  0  0  0  0
    3.8280   71.7230   26.6810 C   0  0  0  0  0  0
    5.8530   73.5730   24.4070 C   0  0  0  0  0  0
    2.6990   76.8680   25.9390 C   0  0  0  0  0  0
    7.8480   74.8230   23.8500 O   0  5  0  0  0  0
    7.4260   72.8820   22.8360 O   0  0  0  0  0  0
    0.2368   74.6265   25.0693 H   0  0  0  0  0  0
    2.0735   71.4151   27.9218 H   0  0  0  0  0  0
    4.5603   76.0933   26.7382 H   0  0  0  0  0  0
   -0.9652   76.7254   24.4974 H   0  0  0  0  0  0
    0.1793   78.9212   24.7914 H   0  0  0  0  0  0
    2.0792   80.2371   25.5110 H   0  0  0  0  0  0
    5.6479   78.3039   26.9860 H   0  0  0  0  0  0
    4.3629   80.3881   26.4984 H   0  0  0  0  0  0
    4.9189   75.4321   23.9984 H   0  0  0  0  0  0
    1.0557   73.6536   27.3908 H   0  0  0  0  0  0
    4.2863   70.7631   26.9189 H   0  0  0  0  0  0
  1  2  2  0  0  0
  1  3  1  0  0  0
  1 14  1  0  0  0
  2 15  1  0  0  0
  2 16  1  0  0  0
  3 17  2  0  0  0
  3 18  1  0  0  0
  4  9  2  0  0  0
  4 15  1  0  0  0
  4 23  1  0  0  0
  5 16  2  0  0  0
  5 18  1  0  0  0
  5 24  1  0  0  0
  6 19  1  0  0  0
  6 21  1  0  0  0
  6 22  2  0  0  0
  7 10  2  0  0  0
  7 11  1  0  0  0
  7 20  1  0  0  0
  8 12  2  0  0  0
  8 20  1  0  0  0
  8 25  1  0  0  0
  9 10  1  0  0  0
  9 26  1  0  0  0
 10 27  1  0  0  0
 11 13  2  0  0  0
 11 28  1  0  0  0
 12 13  1  0  0  0
 12 29  1  0  0  0
 13 30  1  0  0  0
 14 19  2  0  0  0
 14 31  1  0  0  0
 15 20  2  0  0  0
 16 32  1  0  0  0
 17 19  1  0  0  0
 18 33  1  0  0  0
M  CHG  1  21  -1
M  END
> <s_m_source_file>
../5djp_ligand.sdf

> <i_m_source_file_index>
1

> <s_epik_input>
W09IXUMoPU8pQyg9W0NIXTEpTj1DKEMxPTIpW0NIMl1bQ0hdPVtDSF1DMmMoW2NIXVtjSF1bY0hdMyljKGMzNClbY0hdW2NIXVtjSF1bY0hdNA==

> <s_epik_cmdline>
J2VwaWtfYXBwJywgJy1pbWFlJywgJ2xpZ2FuZF9wcm8ubWFlJywgJy1vbWFlJywgJ2xpZ2FuZF9wcmVwLm1hZScsICctbXMnLCAnMScsICctcGgnLCAnNycsICctcGh0JywgJzAuNScsICctbnQn

> <r_lp_tautomer_probability>
1

> <r_epik_Ionization_Penalty>
  0.0000

> <r_epik_Ionization_Penalty_Charging>
  0.0000

> <r_epik_Ionization_Penalty_Neutral>
  0.0000

> <r_epik_State_Penalty>
 -0.0000

> <r_epik_Charging_Adjusted_Penalty>
1.2105964608432e-05

> <i_epik_Tot_Q>
-1

> <i_epik_Tot_abs_Q>
1

> <s_epik_Chemistry_Notes>
This compound has an imine and may undergo hydrolysis.

$$$$
