5djr_ligand
                    3D
 Schrodinger Suite 2020-3.
 31 34  0  0  1  0            999 V2000
    2.7360   72.8610   29.5260 C   0  0  0  0  0  0
    3.7170   72.1230   28.8320 C   0  0  0  0  0  0
    4.6110   74.2360   28.0160 C   0  0  0  0  0  0
    2.7040   74.2730   29.4660 C   0  0  0  0  0  0
    3.6480   74.9950   28.7040 C   0  0  0  0  0  0
    1.0990   76.7920   27.8000 C   0  0  0  0  0  0
    0.4660   77.9350   27.4970 C   0  0  0  0  0  0
    2.5040   77.1790   28.1870 C   0  0  0  0  0  0
    3.6480   76.4800   28.5960 C   0  0  0  0  0  0
    4.7950   77.2600   28.8680 C   0  0  0  0  0  0
    4.7920   78.6620   28.7060 C   0  0  0  0  0  0
    3.6260   79.3430   28.3100 C   0  0  0  0  0  0
    2.4940   78.5600   28.0490 C   0  0  0  0  0  0
    4.6540   72.8480   28.0780 C   0  0  0  0  0  0
    5.6860   72.4050   27.3290 N   0  3  0  0  0  0
    6.3310   73.3970   26.7630 C   0  0  0  0  0  0
    5.7700   74.5660   27.1100 C   0  0  0  0  0  0
    7.5250   73.2400   25.9120 C   0  0  0  0  0  0
    7.5280   72.3560   24.9100 O   0  5  0  0  0  0
    8.5020   73.9360   26.1490 O   0  0  0  0  0  0
    1.2780   78.9510   27.6370 N   0  0  0  0  0  0
    1.9892   72.3333   30.1192 H   0  0  0  0  0  0
    3.7468   71.0344   28.8789 H   0  0  0  0  0  0
    1.9361   74.8145   30.0184 H   0  0  0  0  0  0
    0.5648   75.8328   27.7322 H   0  0  0  0  0  0
   -0.5886   77.9136   27.1851 H   0  0  0  0  0  0
    5.7053   76.7482   29.2138 H   0  0  0  0  0  0
    5.7104   79.2389   28.8899 H   0  0  0  0  0  0
    3.6046   80.4283   28.2110 H   0  0  0  0  0  0
    6.1855   75.5102   26.7283 H   0  0  0  0  0  0
    5.8903   71.3265   27.2571 H   0  0  0  0  0  0
  1  2  2  0  0  0
  1  4  1  0  0  0
  1 22  1  0  0  0
  2 14  1  0  0  0
  2 23  1  0  0  0
  3  5  1  0  0  0
  3 14  2  0  0  0
  3 17  1  0  0  0
  4  5  2  0  0  0
  4 24  1  0  0  0
  5  9  1  0  0  0
  6  7  2  0  0  0
  6  8  1  0  0  0
  6 25  1  0  0  0
  7 21  1  0  0  0
  7 26  1  0  0  0
  8  9  2  0  0  0
  8 13  1  0  0  0
  9 10  1  0  0  0
 10 11  2  0  0  0
 10 27  1  0  0  0
 11 12  1  0  0  0
 11 28  1  0  0  0
 12 13  1  0  0  0
 12 29  1  0  0  0
 13 21  2  0  0  0
 14 15  1  0  0  0
 15 16  1  0  0  0
 15 31  1  0  0  0
 16 17  2  0  0  0
 16 18  1  0  0  0
 17 30  1  0  0  0
 18 19  1  0  0  0
 18 20  2  0  0  0
M  CHG  2  15   1  19  -1
M  END
> <s_m_source_file>
../5djr_ligand.sdf

> <i_m_source_file_index>
1

> <s_epik_input>
W09IXUMoPU8pYyhbY0hdMSlbbkhdYyhjMTIpW2NIXVtjSF1bY0hdYzJDM1tDSF09W0NIXVtDSDJdQyhDPTM0KT1OW0NIXT1bQ0hdNA==

> <s_epik_cmdline>
J2VwaWtfYXBwJywgJy1pbWFlJywgJ2xpZ2FuZF9wcm8ubWFlJywgJy1vbWFlJywgJ2xpZ2FuZF9wcmVwLm1hZScsICctbXMnLCAnMScsICctcGgnLCAnNycsICctcGh0JywgJzAuNScsICctbnQn

> <r_lp_tautomer_probability>
1

> <r_epik_Ionization_Penalty>
  0.0003

> <r_epik_Ionization_Penalty_Charging>
  0.0003

> <r_epik_Ionization_Penalty_Neutral>
  0.0000

> <r_epik_State_Penalty>
 -0.0000

> <r_epik_Charging_Adjusted_Penalty>
0.000269074970751509

> <i_epik_Tot_Q>
0

> <i_epik_Tot_abs_Q>
2

> <s_epik_Chemistry_Notes>
This compound has an imine and may undergo hydrolysis.

$$$$
