5djv_ligand
                    3D
 Schrodinger Suite 2020-3.
 42 46  0  0  1  0            999 V2000
    3.3800   69.9770   30.9490 C   0  0  0  0  0  0
    4.2250   70.5920   29.9230 C   0  0  0  0  0  0
    3.4050   71.3490   29.1860 C   0  0  3  0  0  0
    1.2360   75.2620   26.0910 C   0  0  0  0  0  0
    0.3930   76.3710   25.9060 C   0  0  0  0  0  0
    0.9230   77.6640   26.0670 C   0  0  0  0  0  0
    3.1480   76.7400   26.5620 C   0  0  0  0  0  0
    2.2820   77.8620   26.4020 C   0  0  0  0  0  0
    2.7840   79.1720   26.5600 C   0  0  0  0  0  0
    4.1300   79.3810   26.9210 C   0  0  0  0  0  0
    4.9920   78.2850   27.0870 C   0  0  0  0  0  0
    4.5020   76.9800   26.9180 C   0  0  0  0  0  0
    4.4730   73.8210   25.7400 C   0  0  0  0  0  0
    5.2110   72.6410   26.0300 C   0  0  0  0  0  0
    6.2860   72.2990   25.1910 C   0  0  0  0  0  0
    6.5950   73.1170   24.0880 C   0  0  0  0  0  0
    5.8510   74.2910   23.8470 C   0  0  0  0  0  0
    6.1780   75.1970   22.6740 C   0  0  0  0  0  0
    2.2120   71.2340   29.6980 N   0  0  0  0  0  0
    2.1520   70.4510   30.7320 C   0  0  0  0  0  0
    3.4010   74.1860   26.5940 C   0  0  0  0  0  0
    3.1030   73.3900   27.7180 C   0  0  0  0  0  0
    3.8050   72.2030   27.9910 C   0  0  0  0  0  0
    4.8700   71.8410   27.1410 C   0  0  0  0  0  0
    2.6060   75.4340   26.3940 C   0  0  0  0  0  0
    4.8210   74.6030   24.6730 N   0  0  0  0  0  0
    5.1760   75.8370   22.0670 O   0  5  0  0  0  0
    7.3340   75.3230   22.2730 O   0  0  0  0  0  0
    3.8200   69.2835   31.6807 H   0  0  0  0  0  0
    5.3031   70.3751   29.8958 H   0  0  0  0  0  0
    0.8279   74.2554   25.9996 H   0  0  0  0  0  0
   -0.6553   76.2314   25.6419 H   0  0  0  0  0  0
    0.2739   78.5291   25.9310 H   0  0  0  0  0  0
    2.1265   80.0269   26.4018 H   0  0  0  0  0  0
    4.5024   80.3943   27.0715 H   0  0  0  0  0  0
    6.0383   78.4468   27.3463 H   0  0  0  0  0  0
    5.1741   76.1342   27.0629 H   0  0  0  0  0  0
    6.8767   71.4056   25.3935 H   0  0  0  0  0  0
    7.4106   72.8428   23.4189 H   0  0  0  0  0  0
    1.1931   70.2928   31.2472 H   0  0  0  0  0  0
    2.3070   73.7030   28.3937 H   0  0  0  0  0  0
    5.4366   70.9324   27.3446 H   0  0  0  0  0  0
  1  2  2  0  0  0
  1 20  1  0  0  0
  1 29  1  0  0  0
  2  3  1  0  0  0
  2 30  1  0  0  0
  3 19  1  0  0  0
  3 23  1  0  0  0
  4  5  2  0  0  0
  4 25  1  0  0  0
  4 31  1  0  0  0
  5  6  1  0  0  0
  5 32  1  0  0  0
  6  8  2  0  0  0
  6 33  1  0  0  0
  7  8  1  0  0  0
  7 12  1  0  0  0
  7 25  2  0  0  0
  8  9  1  0  0  0
  9 10  2  0  0  0
  9 34  1  0  0  0
 10 11  1  0  0  0
 10 35  1  0  0  0
 11 12  2  0  0  0
 11 36  1  0  0  0
 12 37  1  0  0  0
 13 14  2  0  0  0
 13 21  1  0  0  0
 13 26  1  0  0  0
 14 15  1  0  0  0
 14 24  1  0  0  0
 15 16  2  0  0  0
 15 38  1  0  0  0
 16 17  1  0  0  0
 16 39  1  0  0  0
 17 18  1  0  0  0
 17 26  2  0  0  0
 18 27  1  0  0  0
 18 28  2  0  0  0
 19 20  2  0  0  0
 20 40  1  0  0  0
 21 22  2  0  0  0
 21 25  1  0  0  0
 22 23  1  0  0  0
 22 41  1  0  0  0
 23 24  2  0  0  0
 24 42  1  0  0  0
M  CHG  1  27  -1
M  END
> <s_m_source_file>
../5djv_ligand.sdf

> <i_m_source_file_index>
1

> <s_epik_input>
W09IXUMoPU8pYyhuMSlbY0hdW2NIXWMoYzEyKVtjSF1jKFtDSF0zW0NIXT1bQ0hdW0NIXT1OMylbY0hdYzItYzRbY0hdW2NIXVtjSF1jKGM0NSlbY0hdW2NIXVtjSF1bY0hdNQ==

> <s_epik_cmdline>
J2VwaWtfYXBwJywgJy1pbWFlJywgJ2xpZ2FuZF9wcm8ubWFlJywgJy1vbWFlJywgJ2xpZ2FuZF9wcmVwLm1hZScsICctbXMnLCAnMScsICctcGgnLCAnNycsICctcGh0JywgJzAuNScsICctbnQn

> <r_lp_tautomer_probability>
1

> <r_epik_Ionization_Penalty>
  0.0010

> <r_epik_Ionization_Penalty_Charging>
  0.0002

> <r_epik_Ionization_Penalty_Neutral>
  0.0008

> <r_epik_State_Penalty>
 -0.0000

> <r_epik_Charging_Adjusted_Penalty>
0.000173380733251137

> <i_epik_Tot_Q>
-1

> <i_epik_Tot_abs_Q>
1

> <s_epik_Chemistry_Notes>
This compound has an imine and may undergo hydrolysis.

$$$$
