5dk4_ligand
                    3D
 Schrodinger Suite 2020-3.
 34 36  0  0  1  0            999 V2000
   10.1890   17.1910   97.4980 C   0  0  0  0  0  0
   10.2100   18.5800   98.0740 N   0  0  0  0  0  0
    9.3460   19.6140   97.6290 C   0  0  0  0  0  0
    8.3500   19.5470   96.6240 N   0  0  0  0  0  0
    7.7550   20.7740   96.5100 C   0  0  0  0  0  0
    6.9400   21.0980   95.6640 O   0  0  0  0  0  0
    8.3020   21.6210   97.5910 C   0  0  1  0  0  0
    9.3710   20.9170   98.1570 O   0  0  0  0  0  0
    8.7780   22.9190   96.9920 C   0  0  2  0  0  0
    9.7060   22.8080   95.8130 C   0  0  0  0  0  0
    9.3180   23.8100   98.1110 C   0  0  0  0  0  0
   10.3250   23.4730   99.0540 C   0  0  0  0  0  0
   10.5070   24.5640   99.8660 N   0  3  0  0  0  0
    9.6560   25.6030   99.4720 C   0  0  0  0  0  0
    9.4650   26.9340   99.9920 C   0  0  0  0  0  0
    8.5350   27.7970   99.4130 C   0  0  0  0  0  0
    7.7590   27.3580   98.2680 C   0  0  0  0  0  0
    7.9400   26.0440   97.7650 C   0  0  0  0  0  0
    8.8990   25.1650   98.3700 C   0  0  0  0  0  0
   10.9461   16.5731   98.0031 H   0  0  0  0  0  0
   10.4118   17.2370   96.4218 H   0  0  0  0  0  0
    9.1938   16.7469   97.6478 H   0  0  0  0  0  0
   10.9178   18.8315   98.8776 H   0  0  0  0  0  0
    7.5783   21.8045   98.3988 H   0  0  0  0  0  0
    7.8995   23.3777   96.5147 H   0  0  0  0  0  0
    9.2547   22.1552   95.0513 H   0  0  0  0  0  0
   10.6653   22.3807   96.1404 H   0  0  0  0  0  0
    9.8765   23.8070   95.3853 H   0  0  0  0  0  0
   10.7937   22.4783   99.0263 H   0  0  0  0  0  0
   10.0533   27.2691  100.8462 H   0  0  0  0  0  0
    8.3914   28.7982   99.8193 H   0  0  0  0  0  0
    7.0429   28.0324   97.7983 H   0  0  0  0  0  0
    7.3485   25.7010   96.9161 H   0  0  0  0  0  0
   11.2427   24.5251  100.6828 H   0  0  0  0  0  0
  1  2  1  0  0  0
  1 20  1  0  0  0
  1 21  1  0  0  0
  1 22  1  0  0  0
  2  3  1  0  0  0
  2 23  1  0  0  0
  3  4  2  0  0  0
  3  8  1  0  0  0
  4  5  1  0  0  0
  5  6  2  0  0  0
  5  7  1  0  0  0
  7  8  1  0  0  0
  7  9  1  0  0  0
  7 24  1  0  0  0
  9 10  1  0  0  0
  9 11  1  0  0  0
  9 25  1  0  0  0
 10 26  1  0  0  0
 10 27  1  0  0  0
 10 28  1  0  0  0
 11 12  2  0  0  0
 11 19  1  0  0  0
 12 13  1  0  0  0
 12 29  1  0  0  0
 13 14  1  0  0  0
 13 34  1  0  0  0
 14 15  1  0  0  0
 14 19  2  0  0  0
 15 16  2  0  0  0
 15 30  1  0  0  0
 16 17  1  0  0  0
 16 31  1  0  0  0
 17 18  2  0  0  0
 17 32  1  0  0  0
 18 19  1  0  0  0
 18 33  1  0  0  0
M  CHG  1  13   1
M  END
> <s_m_source_file>
../5dk4_ligand.sdf

> <i_m_source_file_index>
1

> <s_epik_input>
W0NIM11bTkhdQzE9TkMoPU8pW0NAQEhdKE8xKVtDQEhdKFtDSDNdKWMoW2NIXVtuSF0yKWMoYzIzKVtjSF1bY0hdW2NIXVtjSF0z

> <s_epik_cmdline>
J2VwaWtfYXBwJywgJy1pbWFlJywgJ2xpZ2FuZF9wcm8ubWFlJywgJy1vbWFlJywgJ2xpZ2FuZF9wcmVwLm1hZScsICctbXMnLCAnMScsICctcGgnLCAnNycsICctcGh0JywgJzAuNScsICctbnQn

> <r_lp_tautomer_probability>
0.99812453687993

> <r_epik_Ionization_Penalty>
  1.5608

> <r_epik_Ionization_Penalty_Charging>
  0.0000

> <r_epik_Ionization_Penalty_Neutral>
  1.5608

> <r_epik_State_Penalty>
  0.3420

> <r_epik_Charging_Adjusted_Penalty>
0.342019259947377

> <i_epik_Tot_Q>
1

> <i_epik_Tot_abs_Q>
1

> <s_epik_Chemistry_Notes>
This compound has an imine and may undergo hydrolysis.

$$$$
