5dl1_ligand
                    3D
 Schrodinger Suite 2020-3.
 43 46  0  0  1  0            999 V2000
  -48.3200  -19.0660    5.8210 N   0  0  0  0  0  0
  -48.5330  -20.3960    5.2540 C   0  0  0  0  0  0
  -47.4910  -20.6570    4.1730 C   0  0  0  0  0  0
  -47.6050  -20.4200    2.8900 C   0  0  0  0  0  0
  -45.7790  -21.2420    3.1600 C   0  0  0  0  0  0
  -44.1160  -22.1900    1.7610 C   0  0  0  0  0  0
  -48.1330  -16.7410    5.5400 C   0  0  0  0  0  0
  -46.8470  -15.1820    6.7030 C   0  0  0  0  0  0
  -47.7030  -11.7860    6.8820 C   0  0  0  0  0  0
  -47.2550  -11.1360    5.5910 C   0  0  0  0  0  0
  -47.6560  -14.2130    6.3850 C   0  0  0  0  0  0
  -48.9670  -15.7210    5.1780 C   0  0  0  0  0  0
  -49.2130  -11.7700    6.9300 C   0  0  0  0  0  0
  -47.1770  -13.1200    6.9410 N   0  0  0  0  0  0
  -46.3290  -13.2980    7.4590 N   0  0  0  0  0  0
  -45.9550  -14.5690    7.4290 C   0  0  0  0  0  0
  -47.0270  -16.4350    6.3110 C   0  0  0  0  0  0
  -48.7120  -14.4460    5.6330 N   0  0  0  0  0  0
  -48.3710  -18.0040    5.0350 C   0  0  0  0  0  0
  -48.5730  -18.0960    3.8440 O   0  0  0  0  0  0
  -46.3150  -21.1840    4.3610 N   0  0  0  0  0  0
  -46.5390  -20.7770    2.3230 O   0  0  0  0  0  0
  -44.5450  -21.6630    2.8940 C   0  0  0  0  0  0
  -43.3510  -21.5410    3.8390 S   0  0  0  0  0  0
  -42.2210  -22.1690    2.9070 C   0  0  0  0  0  0
  -42.8100  -22.4850    1.7720 C   0  0  0  0  0  0
  -48.1185  -18.9524    6.8964 H   0  0  0  0  0  0
  -48.4375  -21.1523    6.0471 H   0  0  0  0  0  0
  -49.5401  -20.4504    4.8148 H   0  0  0  0  0  0
  -48.4752  -19.9871    2.3967 H   0  0  0  0  0  0
  -44.7621  -22.3673    0.9013 H   0  0  0  0  0  0
  -47.2995  -11.2832    7.7733 H   0  0  0  0  0  0
  -47.6543  -10.1124    5.5380 H   0  0  0  0  0  0
  -47.6291  -11.7202    4.7373 H   0  0  0  0  0  0
  -46.1560  -11.1030    5.5593 H   0  0  0  0  0  0
  -49.8259  -15.9143    4.5353 H   0  0  0  0  0  0
  -49.5704  -10.7308    6.8823 H   0  0  0  0  0  0
  -49.5550  -12.2327    7.8675 H   0  0  0  0  0  0
  -49.6130  -12.3349    6.0751 H   0  0  0  0  0  0
  -45.0827  -15.0100    7.9113 H   0  0  0  0  0  0
  -46.3151  -17.2112    6.5917 H   0  0  0  0  0  0
  -41.1698  -22.3092    3.1587 H   0  0  0  0  0  0
  -42.2886  -22.9393    0.9295 H   0  0  0  0  0  0
  1  2  1  0  0  0
  1 19  1  0  0  0
  1 27  1  0  0  0
  2  3  1  0  0  0
  2 28  1  0  0  0
  2 29  1  0  0  0
  3  4  2  0  0  0
  3 21  1  0  0  0
  4 22  1  0  0  0
  4 30  1  0  0  0
  5 21  2  0  0  0
  5 22  1  0  0  0
  5 23  1  0  0  0
  6 23  2  0  0  0
  6 26  1  0  0  0
  6 31  1  0  0  0
  7 12  1  0  0  0
  7 17  2  0  0  0
  7 19  1  0  0  0
  8 11  2  0  0  0
  8 16  1  0  0  0
  8 17  1  0  0  0
  9 10  1  0  0  0
  9 13  1  0  0  0
  9 14  1  0  0  0
  9 32  1  0  0  0
 10 33  1  0  0  0
 10 34  1  0  0  0
 10 35  1  0  0  0
 11 14  1  0  0  0
 11 18  1  0  0  0
 12 18  2  0  0  0
 12 36  1  0  0  0
 13 37  1  0  0  0
 13 38  1  0  0  0
 13 39  1  0  0  0
 14 15  1  0  0  0
 15 16  2  0  0  0
 16 40  1  0  0  0
 17 41  1  0  0  0
 19 20  2  0  0  0
 23 24  1  0  0  0
 24 25  1  0  0  0
 25 26  2  0  0  0
 25 42  1  0  0  0
 26 43  1  0  0  0
M  END
> <s_m_source_file>
../5dl1_ligand.sdf

> <i_m_source_file_index>
1

> <s_epik_input>
W0NIM11bQ0hdKFtDSDNdKW4obltjSF0xKWMoYzEyKW5bY0hdYyhbY0hdMilDKD1PKVtOSF1bQ0gyXWMzW2NIXW9jKG4zKS1jNFtjSF1bY0hdW2NIXXM0

> <s_epik_cmdline>
J2VwaWtfYXBwJywgJy1pbWFlJywgJ2xpZ2FuZF9wcm8ubWFlJywgJy1vbWFlJywgJ2xpZ2FuZF9wcmVwLm1hZScsICctbXMnLCAnMScsICctcGgnLCAnNycsICctcGh0JywgJzAuNScsICctbnQn

> <r_lp_tautomer_probability>
1

> <r_epik_Ionization_Penalty>
  0.0000

> <r_epik_Ionization_Penalty_Charging>
  0.0000

> <r_epik_Ionization_Penalty_Neutral>
  0.0000

> <r_epik_State_Penalty>
 -0.0000

> <r_epik_Charging_Adjusted_Penalty>
0

> <i_epik_Tot_Q>
0

> <i_epik_Tot_abs_Q>
0

$$$$
