5dls_ligand
                    3D
 Schrodinger Suite 2020-3.
 74 78  0  0  1  0            999 V2000
    5.8700   -4.0460   18.0870 C   0  0  0  0  0  0
    6.4420   -2.9750   18.7530 C   0  0  0  0  0  0
    2.4350   -3.8330   19.4790 C   0  0  0  0  0  0
    1.6620   -4.8550   19.0900 C   0  0  0  0  0  0
   -1.9260   -4.7870   20.0640 C   0  0  0  0  0  0
   -6.3370   -8.0540   18.1840 C   0  0  0  0  0  0
    8.4330   -5.6000   15.7670 C   0  0  0  0  0  0
   -4.3700   -9.2590   17.3380 C   0  0  0  0  0  0
   -3.0490   -6.7380   19.5930 C   0  0  0  0  0  0
   -0.7860   -5.3450   19.4770 C   0  0  0  0  0  0
    3.7920   -3.5960   19.2320 C   0  0  0  0  0  0
    3.7620   -1.7910   20.7000 O   0  0  0  0  0  0
    0.4240   -3.4050   20.1800 C   0  0  0  0  0  0
    0.4050   -4.6290   19.5330 C   0  0  0  0  0  0
   -4.8850   -8.3020   18.3380 N   0  3  0  0  0  0
   -4.5030   -8.6950   19.7100 C   0  0  0  0  0  0
   -4.0170   -7.4740   20.4980 C   0  0  0  0  0  0
   -3.2030   -7.8980   21.7410 C   0  0  0  0  0  0
   -5.2170   -6.5660   20.8860 C   0  0  0  0  0  0
   -3.1470   -5.3800   20.0420 O   0  0  0  0  0  0
   -1.8910   -3.5610   20.6950 C   0  0  0  0  0  0
   -0.7070   -2.8630   20.7710 C   0  0  0  0  0  0
    1.6520   -2.9430   20.1230 N   0  0  0  0  0  0
    4.5320   -4.3600   18.3510 C   0  0  0  0  0  0
    4.3840   -2.5070   19.8820 C   0  0  0  0  0  0
    5.6950   -2.1720   19.6190 N   0  0  0  0  0  0
    6.5910   -4.8100   17.2340 N   0  0  0  0  0  0
    7.7590   -4.4970   16.5780 C   0  0  0  0  0  0
    8.3500   -3.4080   16.6940 O   0  0  0  0  0  0
    7.7300   -6.6760   15.3480 C   0  0  0  0  0  0
    9.7460   -5.7260   15.4120 C   0  0  0  0  0  0
    9.8720   -6.9100   14.7130 N   0  0  0  0  0  0
    8.5510   -7.5200   14.7150 N   0  0  0  0  0  0
    8.0470   -8.7760   14.1450 C   0  0  0  0  0  0
    8.6350   -9.9410   14.9340 C   0  0  0  0  0  0
    8.1590  -10.1990   16.2410 C   0  0  0  0  0  0
    8.6930  -11.2550   17.0040 C   0  0  0  0  0  0
    9.7060  -12.0420   16.4390 C   0  0  0  0  0  0
   10.1820  -11.7980   15.1330 C   0  0  0  0  0  0
    9.6490  -10.7430   14.3760 C   0  0  0  0  0  0
    7.4980   -2.7535   18.5983 H   0  0  0  0  0  0
    2.0957   -5.6829   18.5099 H   0  0  0  0  0  0
   -6.5517   -7.7669   17.1440 H   0  0  0  0  0  0
   -6.6439   -7.2418   18.8594 H   0  0  0  0  0  0
   -6.8938   -8.9691   18.4342 H   0  0  0  0  0  0
   -4.6727   -8.9356   16.3311 H   0  0  0  0  0  0
   -4.7816  -10.2587   17.5412 H   0  0  0  0  0  0
   -3.2722   -9.2955   17.3969 H   0  0  0  0  0  0
   -2.0383   -7.1522   19.7231 H   0  0  0  0  0  0
   -3.3625   -6.8584   18.5455 H   0  0  0  0  0  0
   -0.8153   -6.3256   18.9795 H   0  0  0  0  0  0
   -4.3978   -7.3345   18.1466 H   0  0  0  0  0  0
   -5.3738   -9.1296   20.2228 H   0  0  0  0  0  0
   -3.6941   -9.4391   19.6665 H   0  0  0  0  0  0
   -2.3643   -8.5378   21.4293 H   0  0  0  0  0  0
   -3.8525   -8.4556   22.4319 H   0  0  0  0  0  0
   -2.8128   -7.0025   22.2467 H   0  0  0  0  0  0
   -5.7720   -6.2845   19.9790 H   0  0  0  0  0  0
   -4.8443   -5.6589   21.3842 H   0  0  0  0  0  0
   -5.8840   -7.1120   21.5694 H   0  0  0  0  0  0
   -2.8079   -3.1431   21.1361 H   0  0  0  0  0  0
   -0.6596   -1.9033   21.2856 H   0  0  0  0  0  0
    4.0700   -5.2148   17.8571 H   0  0  0  0  0  0
    6.1544   -1.2857   20.0809 H   0  0  0  0  0  0
    6.2543   -5.8281   16.9888 H   0  0  0  0  0  0
    6.6621   -6.8310   15.5020 H   0  0  0  0  0  0
   10.5465   -5.0218   15.6387 H   0  0  0  0  0  0
    6.9492   -8.7949   14.2127 H   0  0  0  0  0  0
    8.3506   -8.8478   13.0902 H   0  0  0  0  0  0
    7.3711   -9.5741   16.6615 H   0  0  0  0  0  0
    8.3271  -11.4559   18.0109 H   0  0  0  0  0  0
   10.1346  -12.8587   17.0199 H   0  0  0  0  0  0
   10.9643  -12.4294   14.7118 H   0  0  0  0  0  0
   10.0156  -10.5469   13.3684 H   0  0  0  0  0  0
  1  2  2  0  0  0
  1 24  1  0  0  0
  1 27  1  0  0  0
  2 26  1  0  0  0
  2 41  1  0  0  0
  3  4  2  0  0  0
  3 11  1  0  0  0
  3 23  1  0  0  0
  4 14  1  0  0  0
  4 42  1  0  0  0
  5 10  1  0  0  0
  5 20  1  0  0  0
  5 21  2  0  0  0
  6 15  1  0  0  0
  6 43  1  0  0  0
  6 44  1  0  0  0
  6 45  1  0  0  0
  7 28  1  0  0  0
  7 30  2  0  0  0
  7 31  1  0  0  0
  8 15  1  0  0  0
  8 46  1  0  0  0
  8 47  1  0  0  0
  8 48  1  0  0  0
  9 17  1  0  0  0
  9 20  1  0  0  0
  9 49  1  0  0  0
  9 50  1  0  0  0
 10 14  2  0  0  0
 10 51  1  0  0  0
 11 24  2  0  0  0
 11 25  1  0  0  0
 12 25  2  0  0  0
 13 14  1  0  0  0
 13 22  1  0  0  0
 13 23  2  0  0  0
 15 16  1  0  0  0
 15 52  1  0  0  0
 16 17  1  0  0  0
 16 53  1  0  0  0
 16 54  1  0  0  0
 17 18  1  0  0  0
 17 19  1  0  0  0
 18 55  1  0  0  0
 18 56  1  0  0  0
 18 57  1  0  0  0
 19 58  1  0  0  0
 19 59  1  0  0  0
 19 60  1  0  0  0
 21 22  1  0  0  0
 21 61  1  0  0  0
 22 62  1  0  0  0
 24 63  1  0  0  0
 25 26  1  0  0  0
 26 64  1  0  0  0
 27 28  1  0  0  0
 27 65  1  0  0  0
 28 29  2  0  0  0
 30 33  1  0  0  0
 30 66  1  0  0  0
 31 32  2  0  0  0
 31 67  1  0  0  0
 32 33  1  0  0  0
 33 34  1  0  0  0
 34 35  1  0  0  0
 34 68  1  0  0  0
 34 69  1  0  0  0
 35 36  2  0  0  0
 35 40  1  0  0  0
 36 37  1  0  0  0
 36 70  1  0  0  0
 37 38  2  0  0  0
 37 71  1  0  0  0
 38 39  1  0  0  0
 38 72  1  0  0  0
 39 40  2  0  0  0
 39 73  1  0  0  0
 40 74  1  0  0  0
M  CHG  1  15   1
M  END
> <s_m_source_file>
../5dls_ligand.sdf

> <i_m_source_file_index>
1

> <s_epik_input>
W2NIXTFbY0hdW2NIXVtjSF1bY0hdYzFbQ0gyXW4obltjSF0yKVtjSF1jMkMoPU8pW05IXWMzW2NIXVtuSF1jKD1PKWMoW2NIXTMpQyhONCk9W0NIXUMoQz00NSk9W0NIXUMoPVtDSF1bQ0gyXTUpT1tDSDJdQyhbQ0gzXSkoW0NIM10pW0NIMl1bTkgrXShbQ0gzXSlbQ0gzXQ==

> <s_epik_cmdline>
J2VwaWtfYXBwJywgJy1pbWFlJywgJ2xpZ2FuZF9wcm8ubWFlJywgJy1vbWFlJywgJ2xpZ2FuZF9wcmVwLm1hZScsICctbXMnLCAnMScsICctcGgnLCAnNycsICctcGh0JywgJzAuNScsICctbnQn

> <r_lp_tautomer_probability>
1

> <r_epik_Ionization_Penalty>
  0.0230

> <r_epik_Ionization_Penalty_Charging>
  0.0230

> <r_epik_Ionization_Penalty_Neutral>
  0.0000

> <r_epik_State_Penalty>
 -0.0000

> <r_epik_Charging_Adjusted_Penalty>
0.0230241715177053

> <i_epik_Tot_Q>
1

> <i_epik_Tot_abs_Q>
1

> <s_epik_Chemistry_Notes>
This compound has an imine and may undergo hydrolysis.

$$$$
