5dms_ligand
                    3D
 Schrodinger Suite 2020-3.
 86 85  0  0  1  0            999 V2000
  -54.0710   -5.6270   70.8840 N   0  3  0  0  0  0
  -52.8830   -4.7800   70.9690 C   0  0  2  0  0  0
  -52.7390   -4.1660   72.3630 C   0  0  0  0  0  0
  -53.5500   -3.3280   72.7720 O   0  0  0  0  0  0
  -52.9370   -3.6790   69.9180 C   0  0  0  0  0  0
  -51.8570   -2.6380   70.0720 C   0  0  0  0  0  0
  -50.4750   -3.2480   69.8980 C   0  0  0  0  0  0
  -49.3810   -2.2430   70.2370 C   0  0  0  0  0  0
  -49.3560   -1.0750   69.2980 N   0  3  0  0  0  0
  -51.7040   -4.5850   73.0860 N   0  0  0  0  0  0
  -51.5250   -4.1760   74.4750 C   0  0  2  0  0  0
  -50.0790   -3.8230   74.8260 C   0  0  0  0  0  0
  -49.1680   -3.9270   73.9940 O   0  0  0  0  0  0
  -51.9790   -5.2870   75.4530 C   0  0  2  0  0  0
  -50.9730   -6.3050   75.5120 O   0  0  0  0  0  0
  -53.3150   -5.9050   75.0300 C   0  0  0  0  0  0
  -49.8910   -3.4070   76.0770 N   0  0  0  0  0  0
  -48.5700   -3.2240   76.6660 C   0  0  2  0  0  0
  -47.9520   -4.5850   76.9310 C   0  0  0  0  0  0
  -48.5820   -5.6110   76.6660 O   0  0  0  0  0  0
  -48.6510   -2.4160   77.9670 C   0  0  0  0  0  0
  -49.4940   -3.0440   78.9250 O   0  0  0  0  0  0
  -46.7310   -4.5840   77.4690 N   0  0  0  0  0  0
  -45.9210   -5.7920   77.5880 C   0  0  1  0  0  0
  -44.5110   -5.4450   78.1140 C   0  0  1  0  0  0
  -43.6710   -6.7130   78.2430 C   0  0  0  0  0  0
  -43.8680   -4.6190   77.1640 O   0  0  0  0  0  0
  -43.6700   -3.1140   77.7080 P   0  0  0  0  0  0
  -42.9110   -2.3520   76.5020 O   0  5  0  0  0  0
  -45.0700   -2.3700   77.9570 O   0  5  0  0  0  0
  -42.8440   -3.0940   78.9430 O   0  0  0  0  0  0
  -46.5250   -6.9200   78.4170 C   0  0  0  0  0  0
  -46.9070   -6.7290   79.5750 O   0  0  0  0  0  0
  -46.6000   -8.0960   77.8020 N   0  0  0  0  0  0
  -46.9950   -9.3180   78.4880 C   0  0  2  0  0  0
  -45.8660   -9.8330   79.3770 C   0  0  0  0  0  0
  -44.7000   -9.8570   78.9620 O   0  5  0  0  0  0
  -47.3920  -10.4130   77.4840 C   0  0  2  0  0  0
  -48.7150  -10.0480   76.8060 C   0  0  0  0  0  0
  -47.4810  -11.7650   78.1810 C   0  0  0  0  0  0
  -48.5810   -9.7770   75.3280 C   0  0  0  0  0  0
  -46.1020  -10.2330   80.5240 O   0  0  0  0  0  0
  -54.0148   -6.4152   71.6492 H   0  0  0  0  0  0
  -54.1224   -6.0874   69.8863 H   0  0  0  0  0  0
  -54.9699   -5.0158   71.0525 H   0  0  0  0  0  0
  -52.0344   -5.4509   70.7696 H   0  0  0  0  0  0
  -52.8239   -4.1215   68.9173 H   0  0  0  0  0  0
  -53.9040   -3.1585   69.9816 H   0  0  0  0  0  0
  -51.9923   -1.8541   69.3122 H   0  0  0  0  0  0
  -51.9190   -2.1909   71.0751 H   0  0  0  0  0  0
  -50.3712   -4.1170   70.5644 H   0  0  0  0  0  0
  -50.3446   -3.5690   68.8540 H   0  0  0  0  0  0
  -49.5423   -1.8543   71.2533 H   0  0  0  0  0  0
  -48.3998   -2.7376   70.1851 H   0  0  0  0  0  0
  -48.5498   -0.3863   69.5908 H   0  0  0  0  0  0
  -50.3212   -0.5491   69.3412 H   0  0  0  0  0  0
  -49.1787   -1.4324   68.2729 H   0  0  0  0  0  0
  -50.9729   -5.2562   72.6117 H   0  0  0  0  0  0
  -52.1532   -3.2742   74.5214 H   0  0  0  0  0  0
  -52.0733   -4.8877   76.4736 H   0  0  0  0  0  0
  -49.9437   -6.0450   75.8001 H   0  0  0  0  0  0
  -54.0844   -5.1201   74.9860 H   0  0  0  0  0  0
  -53.6131   -6.6701   75.7619 H   0  0  0  0  0  0
  -53.2069   -6.3686   74.0383 H   0  0  0  0  0  0
  -50.7923   -3.1987   76.6723 H   0  0  0  0  0  0
  -47.9764   -2.6668   75.9263 H   0  0  0  0  0  0
  -47.6452   -2.3193   78.4017 H   0  0  0  0  0  0
  -49.0556   -1.4158   77.7529 H   0  0  0  0  0  0
  -49.6492   -2.5790   79.9097 H   0  0  0  0  0  0
  -46.3398   -3.6216   77.8307 H   0  0  0  0  0  0
  -45.9176   -6.1512   76.5483 H   0  0  0  0  0  0
  -44.5624   -4.8896   79.0621 H   0  0  0  0  0  0
  -44.1366   -7.3883   78.9760 H   0  0  0  0  0  0
  -42.6577   -6.4488   78.5798 H   0  0  0  0  0  0
  -43.6134   -7.2156   77.2662 H   0  0  0  0  0  0
  -46.3489   -8.1229   76.7314 H   0  0  0  0  0  0
  -47.8583   -9.0208   79.1016 H   0  0  0  0  0  0
  -46.6194  -10.4952   76.7053 H   0  0  0  0  0  0
  -49.4287  -10.8766   76.9248 H   0  0  0  0  0  0
  -49.1268   -9.1399   77.2706 H   0  0  0  0  0  0
  -46.5165  -11.9965   78.6566 H   0  0  0  0  0  0
  -47.7216  -12.5434   77.4419 H   0  0  0  0  0  0
  -48.2691  -11.7311   78.9476 H   0  0  0  0  0  0
  -49.5666   -9.5226   74.9110 H   0  0  0  0  0  0
  -48.1903  -10.6737   74.8248 H   0  0  0  0  0  0
  -47.8884   -8.9371   75.1706 H   0  0  0  0  0  0
  1  2  1  0  0  0
  1 43  1  0  0  0
  1 44  1  0  0  0
  1 45  1  0  0  0
  2  3  1  0  0  0
  2  5  1  0  0  0
  2 46  1  0  0  0
  3  4  2  0  0  0
  3 10  1  0  0  0
  5  6  1  0  0  0
  5 47  1  0  0  0
  5 48  1  0  0  0
  6  7  1  0  0  0
  6 49  1  0  0  0
  6 50  1  0  0  0
  7  8  1  0  0  0
  7 51  1  0  0  0
  7 52  1  0  0  0
  8  9  1  0  0  0
  8 53  1  0  0  0
  8 54  1  0  0  0
  9 55  1  0  0  0
  9 56  1  0  0  0
  9 57  1  0  0  0
 10 11  1  0  0  0
 10 58  1  0  0  0
 11 12  1  0  0  0
 11 14  1  0  0  0
 11 59  1  0  0  0
 12 13  2  0  0  0
 12 17  1  0  0  0
 14 15  1  0  0  0
 14 16  1  0  0  0
 14 60  1  0  0  0
 15 61  1  0  0  0
 16 62  1  0  0  0
 16 63  1  0  0  0
 16 64  1  0  0  0
 17 18  1  0  0  0
 17 65  1  0  0  0
 18 19  1  0  0  0
 18 21  1  0  0  0
 18 66  1  0  0  0
 19 20  2  0  0  0
 19 23  1  0  0  0
 21 22  1  0  0  0
 21 67  1  0  0  0
 21 68  1  0  0  0
 22 69  1  0  0  0
 23 24  1  0  0  0
 23 70  1  0  0  0
 24 25  1  0  0  0
 24 32  1  0  0  0
 24 71  1  0  0  0
 25 26  1  0  0  0
 25 27  1  0  0  0
 25 72  1  0  0  0
 26 73  1  0  0  0
 26 74  1  0  0  0
 26 75  1  0  0  0
 27 28  1  0  0  0
 28 29  1  0  0  0
 28 30  1  0  0  0
 28 31  2  0  0  0
 32 33  2  0  0  0
 32 34  1  0  0  0
 34 35  1  0  0  0
 34 76  1  0  0  0
 35 36  1  0  0  0
 35 38  1  0  0  0
 35 77  1  0  0  0
 36 37  1  0  0  0
 36 42  2  0  0  0
 38 39  1  0  0  0
 38 40  1  0  0  0
 38 78  1  0  0  0
 39 41  1  0  0  0
 39 79  1  0  0  0
 39 80  1  0  0  0
 40 81  1  0  0  0
 40 82  1  0  0  0
 40 83  1  0  0  0
 41 84  1  0  0  0
 41 85  1  0  0  0
 41 86  1  0  0  0
M  CHG  5   1   1   9   1  29  -1  30  -1  37  -1
M  END
> <s_m_source_file>
../5dms_ligand.sdf

> <i_m_source_file_index>
1

> <s_epik_input>
W05IMytdW0NIMl1bQ0gyXVtDSDJdW0NIMl1bQ0BIXShbTkgzK10pQyg9TylbTkhdW0NAQEhdKFtDQEhdKFtPSF0pW0NIM10pQyg9TylbTkhdW0NAQEhdKFtDSDJdW09IXSlDKD1PKVtOSF1bQ0BASF0oW0NAQEhdKFtDSDNdKU9QKD1PKShbT0hdKVtPSF0pQyg9TylbTkhdW0NASF0oQyg9TylbT0hdKVtDQEBIXShbQ0gzXSlbQ0gyXVtDSDNd

> <s_epik_cmdline>
J2VwaWtfYXBwJywgJy1pbWFlJywgJ2xpZ2FuZF9wcm8ubWFlJywgJy1vbWFlJywgJ2xpZ2FuZF9wcmVwLm1hZScsICctbXMnLCAnMScsICctcGgnLCAnNycsICctcGh0JywgJzAuNScsICctbnQn

> <r_lp_tautomer_probability>
1

> <r_epik_Ionization_Penalty>
  0.2150

> <r_epik_Ionization_Penalty_Charging>
  0.2150

> <r_epik_Ionization_Penalty_Neutral>
  0.0000

> <r_epik_State_Penalty>
 -0.0000

> <r_epik_Charging_Adjusted_Penalty>
0.214995208889262

> <i_epik_Tot_Q>
-1

> <i_epik_Tot_abs_Q>
5

$$$$
