5dq8_ligand
                    3D
 Schrodinger Suite 2020-3.
 29 30  0  0  1  0            999 V2000
   45.6700   41.7520  -14.7990 C   0  0  0  0  0  0
   47.4980   40.4290  -13.9040 O   0  5  0  0  0  0
   45.2500   40.5460  -15.3050 C   0  0  0  0  0  0
   44.0340   40.4730  -15.9710 C   0  0  0  0  0  0
   47.5760   42.5920  -13.6990 O   0  0  0  0  0  0
   43.2440   41.5990  -16.1290 C   0  0  0  0  0  0
   43.6680   42.8170  -15.6230 C   0  0  0  0  0  0
   44.8940   42.8500  -14.9480 C   0  0  0  0  0  0
   46.9930   41.5630  -14.1080 C   0  0  0  0  0  0
   45.4570   43.9820  -14.3550 N   0  0  0  0  0  0
   45.0050   45.2400  -14.6940 C   0  0  0  0  0  0
   45.9310   46.0420  -15.2850 C   0  0  0  0  0  0
   45.5560   47.3070  -15.6510 C   0  0  0  0  0  0
   44.2660   47.7790  -15.4170 C   0  0  0  0  0  0
   43.3300   46.9490  -14.8150 C   0  0  0  0  0  0
   43.7090   45.6620  -14.4460 C   0  0  0  0  0  0
   46.5770   48.1930  -16.2740 C   0  0  0  0  0  0
   47.7750   47.9500  -15.7050 F   0  0  0  0  0  0
   46.7680   47.9740  -17.5840 F   0  0  0  0  0  0
   46.0290   49.3950  -16.0030 F   0  0  0  0  0  0
   45.8657   39.6546  -15.1848 H   0  0  0  0  0  0
   43.6973   39.5180  -16.3742 H   0  0  0  0  0  0
   42.2897   41.5273  -16.6508 H   0  0  0  0  0  0
   43.0678   43.7185  -15.7462 H   0  0  0  0  0  0
   46.2635   43.8718  -13.6151 H   0  0  0  0  0  0
   46.9460   45.6867  -15.4628 H   0  0  0  0  0  0
   43.9933   48.7943  -15.7050 H   0  0  0  0  0  0
   42.3140   47.3001  -14.6342 H   0  0  0  0  0  0
   42.9940   44.9931  -13.9670 H   0  0  0  0  0  0
  1  3  2  0  0  0
  1  8  1  0  0  0
  1  9  1  0  0  0
  2  9  1  0  0  0
  3  4  1  0  0  0
  3 21  1  0  0  0
  4  6  2  0  0  0
  4 22  1  0  0  0
  5  9  2  0  0  0
  6  7  1  0  0  0
  6 23  1  0  0  0
  7  8  2  0  0  0
  7 24  1  0  0  0
  8 10  1  0  0  0
 10 11  1  0  0  0
 10 25  1  0  0  0
 11 12  2  0  0  0
 11 16  1  0  0  0
 12 13  1  0  0  0
 12 26  1  0  0  0
 13 14  2  0  0  0
 13 17  1  0  0  0
 14 15  1  0  0  0
 14 27  1  0  0  0
 15 16  2  0  0  0
 15 28  1  0  0  0
 16 29  1  0  0  0
 17 18  1  0  0  0
 17 19  1  0  0  0
 17 20  1  0  0  0
M  CHG  1   2  -1
M  END
> <s_m_source_file>
../5dq8_ligand.sdf

> <i_m_source_file_index>
1

> <s_epik_input>
W09IXUMoPU8pYzFbY0hdW2NIXVtjSF1bY0hdYzFbTkhdYzJbY0hdYyhDKEYpKEYpRilbY0hdW2NIXVtjSF0y

> <s_epik_cmdline>
J2VwaWtfYXBwJywgJy1pbWFlJywgJ2xpZ2FuZF9wcm8ubWFlJywgJy1vbWFlJywgJ2xpZ2FuZF9wcmVwLm1hZScsICctbXMnLCAnMScsICctcGgnLCAnNycsICctcGh0JywgJzAuNScsICctbnQn

> <r_lp_tautomer_probability>
1

> <r_epik_Ionization_Penalty>
  0.0013

> <r_epik_Ionization_Penalty_Charging>
  0.0013

> <r_epik_Ionization_Penalty_Neutral>
  0.0000

> <r_epik_State_Penalty>
 -0.0000

> <r_epik_Charging_Adjusted_Penalty>
0.0013249278917022

> <i_epik_Tot_Q>
-1

> <i_epik_Tot_abs_Q>
1

$$$$
