5dqe_ligand
                    3D
 Schrodinger Suite 2020-3.
 26 27  0  0  1  0            999 V2000
   47.5940   42.9870  -13.1300 O   0  0  0  0  0  0
   47.1610   41.9880  -13.7520 C   0  0  0  0  0  0
   47.8020   40.9100  -13.7000 O   0  5  0  0  0  0
   45.8640   42.1100  -14.5500 C   0  0  0  0  0  0
   45.2030   41.0460  -14.9760 C   0  0  0  0  0  0
   43.9010   41.2200  -15.7610 C   0  0  0  0  0  0
   43.4590   42.4340  -16.0260 C   0  0  0  0  0  0
   44.2370   43.6630  -15.5400 C   0  0  0  0  0  0
   45.3540   43.5120  -14.8580 C   0  0  0  0  0  0
   46.1480   44.6230  -14.3710 N   0  0  0  0  0  0
   46.1290   45.9700  -14.9280 C   0  0  0  0  0  0
   44.9620   46.6470  -14.8740 C   0  0  0  0  0  0
   44.8860   47.9240  -15.3660 C   0  0  0  0  0  0
   43.1330   48.7280  -15.2730 Br  0  0  0  0  0  0
   45.9940   48.5820  -15.8760 C   0  0  0  0  0  0
   47.1980   47.9110  -15.9240 C   0  0  0  0  0  0
   47.2650   46.6090  -15.4320 C   0  0  0  0  0  0
   45.5854   40.0467  -14.7681 H   0  0  0  0  0  0
   43.3428   40.3468  -16.0987 H   0  0  0  0  0  0
   42.5371   42.5643  -16.5927 H   0  0  0  0  0  0
   43.8649   44.6638  -15.7594 H   0  0  0  0  0  0
   46.8287   44.4806  -13.5188 H   0  0  0  0  0  0
   44.0797   46.1776  -14.4388 H   0  0  0  0  0  0
   45.9155   49.6092  -16.2320 H   0  0  0  0  0  0
   48.0833   48.3916  -16.3403 H   0  0  0  0  0  0
   48.2184   46.0807  -15.4404 H   0  0  0  0  0  0
  1  2  2  0  0  0
  2  3  1  0  0  0
  2  4  1  0  0  0
  4  5  2  0  0  0
  4  9  1  0  0  0
  5  6  1  0  0  0
  5 18  1  0  0  0
  6  7  2  0  0  0
  6 19  1  0  0  0
  7  8  1  0  0  0
  7 20  1  0  0  0
  8  9  2  0  0  0
  8 21  1  0  0  0
  9 10  1  0  0  0
 10 11  1  0  0  0
 10 22  1  0  0  0
 11 12  2  0  0  0
 11 17  1  0  0  0
 12 13  1  0  0  0
 12 23  1  0  0  0
 13 14  1  0  0  0
 13 15  2  0  0  0
 15 16  1  0  0  0
 15 24  1  0  0  0
 16 17  2  0  0  0
 16 25  1  0  0  0
 17 26  1  0  0  0
M  CHG  1   3  -1
M  END
> <s_m_source_file>
../5dqe_ligand.sdf

> <i_m_source_file_index>
1

> <s_epik_input>
Tz1DKFtPSF0pYzFbY0hdW2NIXVtjSF1bY0hdYzFbTkhdYzJbY0hdYyhCcilbY0hdW2NIXVtjSF0y

> <s_epik_cmdline>
J2VwaWtfYXBwJywgJy1pbWFlJywgJ2xpZ2FuZF9wcm8ubWFlJywgJy1vbWFlJywgJ2xpZ2FuZF9wcmVwLm1hZScsICctbXMnLCAnMScsICctcGgnLCAnNycsICctcGh0JywgJzAuNScsICctbnQn

> <r_lp_tautomer_probability>
1

> <r_epik_Ionization_Penalty>
  0.0013

> <r_epik_Ionization_Penalty_Charging>
  0.0013

> <r_epik_Ionization_Penalty_Neutral>
  0.0000

> <r_epik_State_Penalty>
 -0.0000

> <r_epik_Charging_Adjusted_Penalty>
0.0013249278917022

> <i_epik_Tot_Q>
-1

> <i_epik_Tot_abs_Q>
1

$$$$
