5dtj_ligand
                    3D
 Schrodinger Suite 2020-3.
 36 37  0  0  1  0            999 V2000
    5.2850  -18.3870    7.5310 C   0  0  0  0  0  0
    5.4160  -16.9930    7.5220 C   0  0  0  0  0  0
    6.4920  -16.4290    6.8510 C   0  0  0  0  0  0
    7.4060  -17.2460    6.1870 C   0  0  0  0  0  0
    7.2550  -18.6340    6.2000 C   0  0  0  0  0  0
    6.1830  -19.2180    6.8710 C   0  0  0  0  0  0
    4.0650  -20.3030    8.2270 C   0  0  0  0  0  0
    2.8780  -20.5180    9.1540 C   0  0  0  0  0  0
    4.2270  -15.9330    8.3860 Cl  0  0  0  0  0  0
    8.7560  -16.5280    5.3420 Cl  0  0  0  0  0  0
    4.2100  -18.8790    8.2010 O   0  0  0  0  0  0
    2.5380  -21.9710    9.3980 C   0  0  0  0  0  0
    1.2980  -22.0180   10.2890 C   0  0  0  0  0  0
    0.9790  -23.4740   10.5290 C   0  0  0  0  0  0
   -0.2200  -23.6540   11.3400 N   0  0  0  0  0  0
   -0.7550  -22.8240   12.2200 C   0  0  0  0  0  0
   -1.8480  -23.4250   12.6870 C   0  0  0  0  0  0
   -1.9950  -24.6090   12.1050 N   0  3  0  0  0  0
   -0.9780  -24.7460   11.2620 C   0  0  0  0  0  0
    6.6226  -15.3469    6.8431 H   0  0  0  0  0  0
    7.9792  -19.2634    5.6828 H   0  0  0  0  0  0
    6.0515  -20.3000    6.8784 H   0  0  0  0  0  0
    4.9501  -20.8078    8.6415 H   0  0  0  0  0  0
    3.8360  -20.7200    7.2352 H   0  0  0  0  0  0
    3.0921  -20.0674   10.1344 H   0  0  0  0  0  0
    1.9841  -20.0456    8.7207 H   0  0  0  0  0  0
    2.3361  -22.4667    8.4370 H   0  0  0  0  0  0
    3.3843  -22.4670    9.8957 H   0  0  0  0  0  0
    1.5096  -21.5055   11.2391 H   0  0  0  0  0  0
    0.4616  -21.5164    9.7802 H   0  0  0  0  0  0
    0.8156  -23.9773    9.5647 H   0  0  0  0  0  0
    1.8192  -23.9517   11.0542 H   0  0  0  0  0  0
   -0.3764  -21.8427   12.5062 H   0  0  0  0  0  0
   -2.5213  -23.0070   13.4354 H   0  0  0  0  0  0
   -0.7951  -25.6052   10.6167 H   0  0  0  0  0  0
   -2.8485  -25.2501   12.3704 H   0  0  0  0  0  0
  1  2  2  0  0  0
  1  6  1  0  0  0
  1 11  1  0  0  0
  2  3  1  0  0  0
  2  9  1  0  0  0
  3  4  2  0  0  0
  3 20  1  0  0  0
  4  5  1  0  0  0
  4 10  1  0  0  0
  5  6  2  0  0  0
  5 21  1  0  0  0
  6 22  1  0  0  0
  7  8  1  0  0  0
  7 11  1  0  0  0
  7 23  1  0  0  0
  7 24  1  0  0  0
  8 12  1  0  0  0
  8 25  1  0  0  0
  8 26  1  0  0  0
 12 13  1  0  0  0
 12 27  1  0  0  0
 12 28  1  0  0  0
 13 14  1  0  0  0
 13 29  1  0  0  0
 13 30  1  0  0  0
 14 15  1  0  0  0
 14 31  1  0  0  0
 14 32  1  0  0  0
 15 16  1  0  0  0
 15 19  1  0  0  0
 16 17  2  0  0  0
 16 33  1  0  0  0
 17 18  1  0  0  0
 17 34  1  0  0  0
 18 19  2  0  0  0
 18 36  1  0  0  0
 19 35  1  0  0  0
M  CHG  1  18   1
M  END
> <s_m_source_file>
../5dtj_ligand.sdf

> <i_m_source_file_index>
1

> <s_epik_input>
W2NIXTFbY0hdYyhDbClbY0hdYyhDbCljMU9bQ0gyXVtDSDJdW0NIMl1bQ0gyXVtDSDJdbjJbY0hdW2NIXW5bY0hdMg==

> <s_epik_cmdline>
J2VwaWtfYXBwJywgJy1pbWFlJywgJ2xpZ2FuZF9wcm8ubWFlJywgJy1vbWFlJywgJ2xpZ2FuZF9wcmVwLm1hZScsICctbXMnLCAnMScsICctcGgnLCAnNycsICctcGh0JywgJzAuNScsICctbnQn

> <r_lp_tautomer_probability>
1

> <r_epik_Ionization_Penalty>
  0.2453

> <r_epik_Ionization_Penalty_Charging>
  0.0000

> <r_epik_Ionization_Penalty_Neutral>
  0.2453

> <r_epik_State_Penalty>
  0.2364

> <r_epik_Charging_Adjusted_Penalty>
0.236434330146166

> <i_epik_Tot_Q>
1

> <i_epik_Tot_abs_Q>
1

$$$$
