5e0l_ligand
                    3D
 Schrodinger Suite 2020-3.
165164  0  0  1  0            999 V2000
  -29.3000   28.7300  -16.9050 N   0  3  0  0  0  0
  -28.1690   28.9410  -17.8070 C   0  0  2  0  0  0
  -27.2650   27.7130  -17.8010 C   0  0  0  0  0  0
  -26.9790   27.1490  -16.7360 O   0  0  0  0  0  0
  -27.3640   30.1760  -17.3940 C   0  0  0  0  0  0
  -28.2090   31.3350  -16.8980 C   0  0  0  0  0  0
  -27.3440   32.4960  -16.4070 C   0  0  0  0  0  0
  -27.0890   32.4370  -14.9010 C   0  0  0  0  0  0
  -28.3410   32.4160  -14.0830 N   0  3  0  0  0  0
  -26.8100   27.3070  -18.9880 N   0  0  0  0  0  0
  -26.0080   26.0890  -19.1370 C   0  0  2  0  0  0
  -24.7060   26.3540  -19.8860 C   0  0  0  0  0  0
  -24.6600   27.1350  -20.8300 O   0  0  0  0  0  0
  -26.8030   25.0130  -19.8540 C   0  0  0  0  0  0
  -23.6570   25.6600  -19.4670 N   0  0  0  0  0  0
  -22.3180   25.8380  -19.9980 C   0  0  2  0  0  0
  -21.7700   24.4740  -20.3800 C   0  0  0  0  0  0
  -21.8850   23.5470  -19.6100 O   0  0  0  0  0  0
  -21.3710   26.4250  -18.9290 C   0  0  2  0  0  0
  -21.9810   27.6330  -18.2270 C   0  0  0  0  0  0
  -20.0560   26.7660  -19.5620 C   0  0  0  0  0  0
  -21.0960   28.1580  -17.0930 C   0  0  0  0  0  0
  -21.1410   24.3670  -21.5470 N   0  0  0  0  0  0
  -20.3850   23.1730  -21.9140 C   0  0  2  0  0  0
  -19.0270   23.1850  -21.1900 C   0  0  0  0  0  0
  -18.4000   24.2410  -21.0380 O   0  0  0  0  0  0
  -20.1300   23.1250  -23.4320 C   0  0  0  0  0  0
  -21.3970   22.9580  -24.2540 C   0  0  0  0  0  0
  -22.4630   22.6090  -23.7100 O   0  0  0  0  0  0
  -21.3080   23.1770  -25.4890 O   0  0  0  0  0  0
  -18.5800   22.0160  -20.7560 N   0  0  0  0  0  0
  -17.2720   21.8490  -20.1480 C   0  0  2  0  0  0
  -16.6760   20.5230  -20.6210 C   0  0  0  0  0  0
  -17.3890   19.5480  -20.8180 O   0  0  0  0  0  0
  -17.3850   21.8700  -18.6060 C   0  0  0  0  0  0
  -15.3620   20.5270  -20.8150 N   0  0  0  0  0  0
  -14.5760   19.3610  -21.1790 C   0  0  2  0  0  0
  -13.5540   19.1000  -20.1010 C   0  0  0  0  0  0
  -13.0130   20.0310  -19.5020 O   0  0  0  0  0  0
  -13.8450   19.6010  -22.4290 C   0  0  0  0  0  0
  -13.3260   17.8240  -19.8460 N   0  0  0  0  0  0
  -12.2740   17.4030  -18.9210 C   0  0  2  0  0  0
  -11.4620   16.2830  -19.5420 C   0  0  0  0  0  0
  -11.9660   15.4980  -20.3550 O   0  0  0  0  0  0
  -12.8430   16.9350  -17.5320 C   0  0  2  0  0  0
  -13.4960   15.6670  -17.6390 O   0  0  0  0  0  0
  -13.8290   17.9390  -16.9350 C   0  0  0  0  0  0
  -10.2000   16.2060  -19.1570 N   0  0  0  0  0  0
   -9.3410   15.1060  -19.6270 C   0  0  2  0  0  0
   -8.3700   14.7620  -18.4870 C   0  0  0  0  0  0
   -7.6610   15.6370  -18.0120 O   0  0  0  0  0  0
   -8.5610   15.5430  -20.8510 C   0  0  0  0  0  0
   -7.6210   14.4780  -21.4000 C   0  0  0  0  0  0
   -8.3490   13.2330  -21.8070 C   0  0  0  0  0  0
   -9.2460   13.2830  -22.6310 O   0  0  0  0  0  0
   -7.9930   12.0850  -21.2040 N   0  0  0  0  0  0
   -8.3370   13.4820  -18.0960 N   0  0  0  0  0  0
   -7.3670   13.0110  -17.1020 C   0  0  2  0  0  0
   -5.9450   13.1370  -17.5690 C   0  0  0  0  0  0
   -5.6830   13.0860  -18.7830 O   0  0  0  0  0  0
   -7.5960   11.5350  -16.7370 C   0  0  2  0  0  0
   -7.6910   10.7310  -17.9340 O   0  0  0  0  0  0
   -8.8660   11.3800  -15.9240 C   0  0  0  0  0  0
   -5.0470   13.2630  -16.6200 N   0  0  0  0  0  0
   -3.6450   13.3550  -16.8830 C   0  0  2  0  0  0
   -3.1270   12.0320  -17.3410 C   0  0  0  0  0  0
   -2.2970   11.9820  -18.1910 O   0  0  0  0  0  0
   -2.8910   13.7980  -15.6410 C   0  0  0  0  0  0
   -3.6010   14.8270  -14.8030 C   0  0  0  0  0  0
   -3.2910   16.2400  -15.1530 C   0  0  0  0  0  0
   -2.1760   16.5320  -15.5860 O   0  0  0  0  0  0
   -4.1650   17.0720  -14.9570 O   0  0  0  0  0  0
   -3.6340   10.9500  -16.7960 N   0  0  0  0  0  0
   -3.2610    9.6200  -17.2390 C   0  0  2  0  0  0
   -4.3920    8.9640  -18.0570 C   0  0  0  0  0  0
   -5.3620    9.6490  -18.4330 O   0  0  0  0  0  0
   -2.9390    8.6850  -16.0840 C   0  0  0  0  0  0
   -1.9800    9.2500  -15.0770 C   0  0  0  0  0  0
   -0.6530    9.5910  -15.6800 C   0  0  0  0  0  0
    0.0040   10.5040  -15.1360 O   0  0  0  0  0  0
   -0.2920    8.9610  -16.6990 O   0  0  0  0  0  0
   -4.2430    7.7230  -18.2640 O   0  0  0  0  0  0
  -29.8610   27.8387  -17.2226 H   0  0  0  0  0  0
  -29.9609   29.6088  -16.9339 H   0  0  0  0  0  0
  -28.9290   28.5837  -15.8798 H   0  0  0  0  0  0
  -28.6056   29.0951  -18.8048 H   0  0  0  0  0  0
  -26.6746   29.9088  -16.5796 H   0  0  0  0  0  0
  -26.7881   30.5435  -18.2561 H   0  0  0  0  0  0
  -28.8467   31.7004  -17.7164 H   0  0  0  0  0  0
  -28.8411   30.9972  -16.0635 H   0  0  0  0  0  0
  -26.3700   32.4690  -16.9175 H   0  0  0  0  0  0
  -27.8480   33.4482  -16.6289 H   0  0  0  0  0  0
  -26.5237   31.5246  -14.6603 H   0  0  0  0  0  0
  -26.5094   33.3195  -14.5924 H   0  0  0  0  0  0
  -28.0806   32.3735  -13.0151 H   0  0  0  0  0  0
  -28.9387   31.5320  -14.3501 H   0  0  0  0  0  0
  -28.9244   33.3270  -14.2822 H   0  0  0  0  0  0
  -27.0535   27.9166  -19.8707 H   0  0  0  0  0  0
  -25.7778   25.7714  -18.1093 H   0  0  0  0  0  0
  -27.7405   24.8259  -19.3099 H   0  0  0  0  0  0
  -26.2117   24.0863  -19.8951 H   0  0  0  0  0  0
  -27.0329   25.3470  -20.8765 H   0  0  0  0  0  0
  -23.8408   24.9184  -18.6756 H   0  0  0  0  0  0
  -22.4283   26.5133  -20.8593 H   0  0  0  0  0  0
  -21.1820   25.6737  -18.1481 H   0  0  0  0  0  0
  -22.1208   28.4472  -18.9533 H   0  0  0  0  0  0
  -22.9543   27.3543  -17.7968 H   0  0  0  0  0  0
  -19.6456   25.8741  -20.0580 H   0  0  0  0  0  0
  -19.3547   27.1103  -18.7877 H   0  0  0  0  0  0
  -20.2026   27.5639  -20.3049 H   0  0  0  0  0  0
  -21.5803   29.0260  -16.6218 H   0  0  0  0  0  0
  -20.1192   28.4590  -17.4996 H   0  0  0  0  0  0
  -20.9527   27.3661  -16.3431 H   0  0  0  0  0  0
  -21.2033   25.2147  -22.2452 H   0  0  0  0  0  0
  -21.0124   22.3253  -21.6014 H   0  0  0  0  0  0
  -19.6501   24.0613  -23.7530 H   0  0  0  0  0  0
  -19.4709   22.2761  -23.6664 H   0  0  0  0  0  0
  -22.1944   23.0710  -26.1317 H   0  0  0  0  0  0
  -19.2471   21.1492  -20.8724 H   0  0  0  0  0  0
  -16.6585   22.6952  -20.4908 H   0  0  0  0  0  0
  -17.8150   22.8295  -18.2829 H   0  0  0  0  0  0
  -16.3853   21.7486  -18.1634 H   0  0  0  0  0  0
  -18.0351   21.0468  -18.2748 H   0  0  0  0  0  0
  -14.8703   21.5018  -20.6810 H   0  0  0  0  0  0
  -15.2800   18.5274  -21.3188 H   0  0  0  0  0  0
  -14.5611   19.7958  -23.2409 H   0  0  0  0  0  0
  -13.2418   18.7152  -22.6768 H   0  0  0  0  0  0
  -13.1843   20.4718  -22.3060 H   0  0  0  0  0  0
  -13.9502   17.0706  -20.3487 H   0  0  0  0  0  0
  -11.6511   18.3015  -18.8001 H   0  0  0  0  0  0
  -12.0096   16.7761  -16.8318 H   0  0  0  0  0  0
  -12.9538   14.8020  -18.0486 H   0  0  0  0  0  0
  -13.3427   18.9216  -16.8454 H   0  0  0  0  0  0
  -14.1456   17.5944  -15.9395 H   0  0  0  0  0  0
  -14.7083   18.0235  -17.5905 H   0  0  0  0  0  0
   -9.7924   16.9715  -18.4803 H   0  0  0  0  0  0
   -9.9786   14.2532  -19.9029 H   0  0  0  0  0  0
   -9.2613   15.8047  -21.6579 H   0  0  0  0  0  0
   -7.9463   16.4201  -20.6002 H   0  0  0  0  0  0
   -7.0977   14.8713  -22.2840 H   0  0  0  0  0  0
   -6.8850   14.2059  -20.6291 H   0  0  0  0  0  0
   -7.1778   12.0815  -20.4654 H   0  0  0  0  0  0
   -8.5170   11.1494  -21.4493 H   0  0  0  0  0  0
   -9.0582   12.7782  -18.5372 H   0  0  0  0  0  0
   -7.5394   13.6907  -16.2545 H   0  0  0  0  0  0
   -6.7375   11.1443  -16.1710 H   0  0  0  0  0  0
   -6.8589   10.7150  -18.6533 H   0  0  0  0  0  0
   -8.7948   11.9916  -15.0125 H   0  0  0  0  0  0
   -8.9976   10.3235  -15.6473 H   0  0  0  0  0  0
   -9.7272   11.7124  -16.5223 H   0  0  0  0  0  0
   -5.4157   13.2968  -15.5842 H   0  0  0  0  0  0
   -3.5453   14.1003  -17.6858 H   0  0  0  0  0  0
   -2.7127   12.9288  -14.9908 H   0  0  0  0  0  0
   -1.9274   14.2397  -15.9350 H   0  0  0  0  0  0
   -4.6884   14.7042  -14.9151 H   0  0  0  0  0  0
   -3.3240   14.6943  -13.7468 H   0  0  0  0  0  0
   -1.9428   17.5751  -15.8459 H   0  0  0  0  0  0
   -4.3617   11.0742  -15.9805 H   0  0  0  0  0  0
   -2.3581    9.8194  -17.8348 H   0  0  0  0  0  0
   -3.8643    8.4390  -15.5425 H   0  0  0  0  0  0
   -2.4864    7.7618  -16.4748 H   0  0  0  0  0  0
   -2.4021   10.1689  -14.6441 H   0  0  0  0  0  0
   -1.8103    8.5128  -14.2784 H   0  0  0  0  0  0
    0.6769    9.1846  -17.1693 H   0  0  0  0  0  0
   -4.9984    7.1666  -18.8384 H   0  0  0  0  0  0
  1  2  1  0  0  0
  1 83  1  0  0  0
  1 84  1  0  0  0
  1 85  1  0  0  0
  2  3  1  0  0  0
  2  5  1  0  0  0
  2 86  1  0  0  0
  3  4  2  0  0  0
  3 10  1  0  0  0
  5  6  1  0  0  0
  5 87  1  0  0  0
  5 88  1  0  0  0
  6  7  1  0  0  0
  6 89  1  0  0  0
  6 90  1  0  0  0
  7  8  1  0  0  0
  7 91  1  0  0  0
  7 92  1  0  0  0
  8  9  1  0  0  0
  8 93  1  0  0  0
  8 94  1  0  0  0
  9 95  1  0  0  0
  9 96  1  0  0  0
  9 97  1  0  0  0
 10 11  1  0  0  0
 10 98  1  0  0  0
 11 12  1  0  0  0
 11 14  1  0  0  0
 11 99  1  0  0  0
 12 13  2  0  0  0
 12 15  1  0  0  0
 14100  1  0  0  0
 14101  1  0  0  0
 14102  1  0  0  0
 15 16  1  0  0  0
 15103  1  0  0  0
 16 17  1  0  0  0
 16 19  1  0  0  0
 16104  1  0  0  0
 17 18  2  0  0  0
 17 23  1  0  0  0
 19 20  1  0  0  0
 19 21  1  0  0  0
 19105  1  0  0  0
 20 22  1  0  0  0
 20106  1  0  0  0
 20107  1  0  0  0
 21108  1  0  0  0
 21109  1  0  0  0
 21110  1  0  0  0
 22111  1  0  0  0
 22112  1  0  0  0
 22113  1  0  0  0
 23 24  1  0  0  0
 23114  1  0  0  0
 24 25  1  0  0  0
 24 27  1  0  0  0
 24115  1  0  0  0
 25 26  2  0  0  0
 25 31  1  0  0  0
 27 28  1  0  0  0
 27116  1  0  0  0
 27117  1  0  0  0
 28 29  2  0  0  0
 28 30  1  0  0  0
 30118  1  0  0  0
 31 32  1  0  0  0
 31119  1  0  0  0
 32 33  1  0  0  0
 32 35  1  0  0  0
 32120  1  0  0  0
 33 34  2  0  0  0
 33 36  1  0  0  0
 35121  1  0  0  0
 35122  1  0  0  0
 35123  1  0  0  0
 36 37  1  0  0  0
 36124  1  0  0  0
 37 38  1  0  0  0
 37 40  1  0  0  0
 37125  1  0  0  0
 38 39  2  0  0  0
 38 41  1  0  0  0
 40126  1  0  0  0
 40127  1  0  0  0
 40128  1  0  0  0
 41 42  1  0  0  0
 41129  1  0  0  0
 42 43  1  0  0  0
 42 45  1  0  0  0
 42130  1  0  0  0
 43 44  2  0  0  0
 43 48  1  0  0  0
 45 46  1  0  0  0
 45 47  1  0  0  0
 45131  1  0  0  0
 46132  1  0  0  0
 47133  1  0  0  0
 47134  1  0  0  0
 47135  1  0  0  0
 48 49  1  0  0  0
 48136  1  0  0  0
 49 50  1  0  0  0
 49 52  1  0  0  0
 49137  1  0  0  0
 50 51  2  0  0  0
 50 57  1  0  0  0
 52 53  1  0  0  0
 52138  1  0  0  0
 52139  1  0  0  0
 53 54  1  0  0  0
 53140  1  0  0  0
 53141  1  0  0  0
 54 55  2  0  0  0
 54 56  1  0  0  0
 56142  1  0  0  0
 56143  1  0  0  0
 57 58  1  0  0  0
 57144  1  0  0  0
 58 59  1  0  0  0
 58 61  1  0  0  0
 58145  1  0  0  0
 59 60  2  0  0  0
 59 64  1  0  0  0
 61 62  1  0  0  0
 61 63  1  0  0  0
 61146  1  0  0  0
 62147  1  0  0  0
 63148  1  0  0  0
 63149  1  0  0  0
 63150  1  0  0  0
 64 65  1  0  0  0
 64151  1  0  0  0
 65 66  1  0  0  0
 65 68  1  0  0  0
 65152  1  0  0  0
 66 67  2  0  0  0
 66 73  1  0  0  0
 68 69  1  0  0  0
 68153  1  0  0  0
 68154  1  0  0  0
 69 70  1  0  0  0
 69155  1  0  0  0
 69156  1  0  0  0
 70 71  1  0  0  0
 70 72  2  0  0  0
 71157  1  0  0  0
 73 74  1  0  0  0
 73158  1  0  0  0
 74 75  1  0  0  0
 74 77  1  0  0  0
 74159  1  0  0  0
 75 76  2  0  0  0
 75 82  1  0  0  0
 77 78  1  0  0  0
 77160  1  0  0  0
 77161  1  0  0  0
 78 79  1  0  0  0
 78162  1  0  0  0
 78163  1  0  0  0
 79 80  2  0  0  0
 79 81  1  0  0  0
 81164  1  0  0  0
 82165  1  0  0  0
M  CHG  2   1   1   9   1
M  END
> <s_m_source_file>
../5e0l_ligand.sdf

> <i_m_source_file_index>
1

> <s_epik_input>
W05IMytdW0NIMl1bQ0gyXVtDSDJdW0NIMl1bQ0BIXShbTkgzK10pQyg9TylbTkhdW0NAQEhdKFtDSDNdKUMoPU8pW05IXVtDQEBIXShbQ0BASF0oW0NIM10pW0NIMl1bQ0gzXSlDKD1PKVtOSF1bQ0BASF0oW0NIMl1DKD1PKVtPSF0pQyg9TylbTkhdW0NAQEhdKFtDSDNdKUMoPU8pW05IXVtDQEBIXShbQ0gzXSlDKD1PKVtOSF1bQ0BASF0oW0NASF0oW09IXSlbQ0gzXSlDKD1PKVtOSF1bQ0BASF0oW0NIMl1bQ0gyXUMoPU8pW05IMl0pQyg9TylbTkhdW0NAQEhdKFtDQEhdKFtPSF0pW0NIM10pQyg9TylbTkhdW0NAQEhdKFtDSDJdW0NIMl1DKD1PKVtPSF0pQyg9TylbTkhdW0NASF0oQyg9TylbT0hdKVtDSDJdW0NIMl1DKD1PKVtPSF0=

> <s_epik_cmdline>
J2VwaWtfYXBwJywgJy1pbWFlJywgJ2xpZ2FuZF9wcm8ubWFlJywgJy1vbWFlJywgJ2xpZ2FuZF9wcmVwLm1hZScsICctbXMnLCAnMScsICctcGgnLCAnNycsICctcGh0JywgJzAuNScsICctbnQn

> <s_epik_pKa_notes>
Molecule size exceeds maximum supported for generating protonation states

$$$$
