5e0m_ligand
                    3D
 Schrodinger Suite 2020-3.
140139  0  0  1  0            999 V2000
  -23.3450   25.7060  -19.3900 N   0  3  0  0  0  0
  -22.2500   25.7320  -20.3460 C   0  0  2  0  0  0
  -21.6900   24.3350  -20.5610 C   0  0  0  0  0  0
  -21.8170   23.4550  -19.7100 O   0  0  0  0  0  0
  -21.1390   26.6750  -19.8690 C   0  0  0  0  0  0
  -20.4830   26.2300  -18.5880 C   0  0  0  0  0  0
  -19.4950   27.2510  -18.0460 C   0  0  0  0  0  0
  -18.5660   26.6400  -17.0870 N   0  0  0  0  0  0
  -17.2650   26.4370  -17.2990 C   0  0  0  0  0  0
  -16.6940   26.8180  -18.4360 N   0  3  0  0  0  0
  -16.5210   25.8650  -16.3560 N   0  0  0  0  0  0
  -21.0710   24.1380  -21.7150 N   0  0  0  0  0  0
  -20.4390   22.8700  -22.0320 C   0  0  2  0  0  0
  -18.9400   22.9990  -21.8460 C   0  0  0  0  0  0
  -18.3420   23.9660  -22.2880 O   0  0  0  0  0  0
  -20.7700   22.4420  -23.4620 C   0  0  0  0  0  0
  -22.1710   22.3140  -23.6360 O   0  0  0  0  0  0
  -18.3340   22.0260  -21.1790 N   0  0  0  0  0  0
  -16.8900   22.0320  -21.0060 C   0  0  2  0  0  0
  -16.3310   20.6380  -21.1480 C   0  0  0  0  0  0
  -17.0540   19.6510  -20.9980 O   0  0  0  0  0  0
  -16.4770   22.5960  -19.6400 C   0  0  2  0  0  0
  -17.3430   22.0840  -18.6200 O   0  0  0  0  0  0
  -16.5510   24.1010  -19.6520 C   0  0  0  0  0  0
  -15.0450   20.5690  -21.4710 N   0  0  0  0  0  0
  -14.3520   19.3030  -21.5560 C   0  0  2  0  0  0
  -13.5670   19.0800  -20.2830 C   0  0  0  0  0  0
  -13.1590   20.0400  -19.6030 O   0  0  0  0  0  0
  -13.3680   19.2410  -22.7290 C   0  0  2  0  0  0
  -12.4180   20.3040  -22.5990 O   0  0  0  0  0  0
  -14.0900   19.3550  -24.0550 C   0  0  0  0  0  0
  -13.3700   17.8080  -19.9620 N   0  0  0  0  0  0
  -12.3920   17.4150  -18.9670 C   0  0  2  0  0  0
  -11.5580   16.3280  -19.6080 C   0  0  0  0  0  0
  -12.0340   15.5870  -20.4660 O   0  0  0  0  0  0
  -13.0370   16.9010  -17.6580 C   0  0  2  0  0  0
  -13.5990   15.6030  -17.8770 O   0  0  0  0  0  0
  -14.1280   17.8520  -17.1700 C   0  0  0  0  0  0
  -10.3000   16.2470  -19.2130 N   0  0  0  0  0  0
   -9.4310   15.1800  -19.6550 C   0  0  2  0  0  0
   -8.4660   14.8040  -18.5360 C   0  0  0  0  0  0
   -7.7610   15.6550  -18.0170 O   0  0  0  0  0  0
   -8.6620   15.6080  -20.9040 C   0  0  0  0  0  0
   -7.6720   14.5800  -21.3940 C   0  0  0  0  0  0
   -8.3550   13.3190  -21.8450 C   0  0  0  0  0  0
   -9.2920   13.3700  -22.6340 O   0  0  0  0  0  0
   -7.9140   12.1780  -21.3200 N   0  0  0  0  0  0
   -8.4330   13.5280  -18.1740 N   0  0  0  0  0  0
   -7.5130   13.0580  -17.1550 C   0  0  2  0  0  0
   -6.0740   13.1980  -17.6270 C   0  0  0  0  0  0
   -5.7770   13.0400  -18.8140 O   0  0  0  0  0  0
   -7.7650   11.5910  -16.7810 C   0  0  2  0  0  0
   -7.8240   10.7880  -17.9660 O   0  0  0  0  0  0
   -9.0560   11.4480  -16.0190 C   0  0  0  0  0  0
   -5.1920   13.4960  -16.6780 N   0  0  0  0  0  0
   -3.7600   13.6200  -16.9340 C   0  0  2  0  0  0
   -3.1790   12.2820  -17.3720 C   0  0  0  0  0  0
   -2.3090   12.2190  -18.2420 O   0  0  0  0  0  0
   -3.0420   14.1260  -15.6730 C   0  0  0  0  0  0
   -3.5900   15.4640  -15.1810 C   0  0  0  0  0  0
   -4.0310   16.2750  -16.0230 O   0  0  0  0  0  0
   -3.5710   15.7090  -13.9540 O   0  5  0  0  0  0
   -3.6640   11.2130  -16.7490 N   0  0  0  0  0  0
   -3.2710    9.8530  -17.1030 C   0  0  2  0  0  0
   -4.3840    9.1720  -17.9200 C   0  0  0  0  0  0
   -4.3540    7.9680  -18.1830 O   0  5  0  0  0  0
   -2.9640    9.0350  -15.8420 C   0  0  0  0  0  0
   -1.4790    8.8580  -15.5260 C   0  0  0  0  0  0
   -0.5570   10.4000  -15.3330 S   0  0  0  0  0  0
   -1.2860   11.0810  -13.8360 C   0  0  0  0  0  0
   -5.3630    9.7980  -18.3300 O   0  0  0  0  0  0
  -24.1301   25.0249  -19.7502 H   0  0  0  0  0  0
  -23.7601   26.7188  -19.2803 H   0  0  0  0  0  0
  -22.9732   25.3546  -18.4162 H   0  0  0  0  0  0
  -22.6930   26.1012  -21.2827 H   0  0  0  0  0  0
  -20.3543   26.7353  -20.6375 H   0  0  0  0  0  0
  -21.5584   27.6767  -19.6938 H   0  0  0  0  0  0
  -21.2528   26.0667  -17.8194 H   0  0  0  0  0  0
  -19.9350   25.2924  -18.7631 H   0  0  0  0  0  0
  -18.9112   27.6734  -18.8771 H   0  0  0  0  0  0
  -20.0432   28.0570  -17.5362 H   0  0  0  0  0  0
  -18.9300   26.3088  -16.1032 H   0  0  0  0  0  0
  -17.2986   27.2920  -19.2232 H   0  0  0  0  0  0
  -16.9824   25.5451  -15.4101 H   0  0  0  0  0  0
  -15.4445   25.7119  -16.5223 H   0  0  0  0  0  0
  -21.0427   24.9635  -22.4415 H   0  0  0  0  0  0
  -20.8473   22.1319  -21.3259 H   0  0  0  0  0  0
  -20.3920   23.1967  -24.1674 H   0  0  0  0  0  0
  -20.2958   21.4723  -23.6736 H   0  0  0  0  0  0
  -22.5787   22.0118  -24.6119 H   0  0  0  0  0  0
  -18.9354   21.2086  -20.7545 H   0  0  0  0  0  0
  -16.5253   22.6780  -21.8182 H   0  0  0  0  0  0
  -15.4603   22.2736  -19.3710 H   0  0  0  0  0  0
  -17.4225   20.9986  -18.4598 H   0  0  0  0  0  0
  -15.8862   24.4945  -20.4351 H   0  0  0  0  0  0
  -16.2358   24.4914  -18.6731 H   0  0  0  0  0  0
  -17.5850   24.4156  -19.8566 H   0  0  0  0  0  0
  -14.5062   21.5058  -21.6763 H   0  0  0  0  0  0
  -15.1584   18.5678  -21.6946 H   0  0  0  0  0  0
  -12.7951   18.3021  -22.7116 H   0  0  0  0  0  0
  -11.7986   20.3803  -21.6932 H   0  0  0  0  0  0
  -14.8178   18.5355  -24.1478 H   0  0  0  0  0  0
  -13.3607   19.2925  -24.8761 H   0  0  0  0  0  0
  -14.6159   20.3199  -24.1043 H   0  0  0  0  0  0
  -13.9726   17.0428  -20.4732 H   0  0  0  0  0  0
  -11.8054   18.3132  -18.7239 H   0  0  0  0  0  0
  -12.2765   16.7750  -16.8733 H   0  0  0  0  0  0
  -12.9612   14.7803  -18.2325 H   0  0  0  0  0  0
  -13.6963   18.8497  -17.0016 H   0  0  0  0  0  0
  -14.5514   17.4720  -16.2286 H   0  0  0  0  0  0
  -14.9219   17.9192  -17.9284 H   0  0  0  0  0  0
   -9.9183   17.0197  -18.5294 H   0  0  0  0  0  0
  -10.0880   14.3301  -19.8920 H   0  0  0  0  0  0
   -9.3703   15.7951  -21.7245 H   0  0  0  0  0  0
   -8.0976   16.5276  -20.6900 H   0  0  0  0  0  0
   -7.1077   14.9905  -22.2443 H   0  0  0  0  0  0
   -6.9761   14.3245  -20.5813 H   0  0  0  0  0  0
   -7.0689   12.1869  -20.6159 H   0  0  0  0  0  0
   -8.3947   11.2262  -21.5902 H   0  0  0  0  0  0
   -9.1206   12.8217  -18.6622 H   0  0  0  0  0  0
   -7.7180   13.7159  -16.2976 H   0  0  0  0  0  0
   -6.9340   11.1967  -16.1778 H   0  0  0  0  0  0
   -6.9678   10.7622  -18.6561 H   0  0  0  0  0  0
   -9.0143   12.0634  -15.1082 H   0  0  0  0  0  0
   -9.2038   10.3936  -15.7427 H   0  0  0  0  0  0
   -9.8929   11.7826  -16.6496 H   0  0  0  0  0  0
   -5.5846   13.6514  -15.6623 H   0  0  0  0  0  0
   -3.6589   14.3464  -17.7538 H   0  0  0  0  0  0
   -3.1644   13.3927  -14.8623 H   0  0  0  0  0  0
   -1.9716   14.2587  -15.8889 H   0  0  0  0  0  0
   -4.3881   11.3829  -15.9385 H   0  0  0  0  0  0
   -2.3595    9.9587  -17.7096 H   0  0  0  0  0  0
   -3.4136    9.5274  -14.9671 H   0  0  0  0  0  0
   -3.3837    8.0239  -15.9496 H   0  0  0  0  0  0
   -1.3685    8.3022  -14.5832 H   0  0  0  0  0  0
   -0.9950    8.2988  -16.3402 H   0  0  0  0  0  0
   -0.8058   12.0418  -13.5986 H   0  0  0  0  0  0
   -1.1344   10.3794  -13.0024 H   0  0  0  0  0  0
   -2.3635   11.2382  -13.9916 H   0  0  0  0  0  0
  -15.6165   26.6595  -18.5904 H   0  0  0  0  0  0
  1  2  1  0  0  0
  1 72  1  0  0  0
  1 73  1  0  0  0
  1 74  1  0  0  0
  2  3  1  0  0  0
  2  5  1  0  0  0
  2 75  1  0  0  0
  3  4  2  0  0  0
  3 12  1  0  0  0
  5  6  1  0  0  0
  5 76  1  0  0  0
  5 77  1  0  0  0
  6  7  1  0  0  0
  6 78  1  0  0  0
  6 79  1  0  0  0
  7  8  1  0  0  0
  7 80  1  0  0  0
  7 81  1  0  0  0
  8  9  1  0  0  0
  8 82  1  0  0  0
  9 10  2  0  0  0
  9 11  1  0  0  0
 10 83  1  0  0  0
 10140  1  0  0  0
 11 84  1  0  0  0
 11 85  1  0  0  0
 12 13  1  0  0  0
 12 86  1  0  0  0
 13 14  1  0  0  0
 13 16  1  0  0  0
 13 87  1  0  0  0
 14 15  2  0  0  0
 14 18  1  0  0  0
 16 17  1  0  0  0
 16 88  1  0  0  0
 16 89  1  0  0  0
 17 90  1  0  0  0
 18 19  1  0  0  0
 18 91  1  0  0  0
 19 20  1  0  0  0
 19 22  1  0  0  0
 19 92  1  0  0  0
 20 21  2  0  0  0
 20 25  1  0  0  0
 22 23  1  0  0  0
 22 24  1  0  0  0
 22 93  1  0  0  0
 23 94  1  0  0  0
 24 95  1  0  0  0
 24 96  1  0  0  0
 24 97  1  0  0  0
 25 26  1  0  0  0
 25 98  1  0  0  0
 26 27  1  0  0  0
 26 29  1  0  0  0
 26 99  1  0  0  0
 27 28  2  0  0  0
 27 32  1  0  0  0
 29 30  1  0  0  0
 29 31  1  0  0  0
 29100  1  0  0  0
 30101  1  0  0  0
 31102  1  0  0  0
 31103  1  0  0  0
 31104  1  0  0  0
 32 33  1  0  0  0
 32105  1  0  0  0
 33 34  1  0  0  0
 33 36  1  0  0  0
 33106  1  0  0  0
 34 35  2  0  0  0
 34 39  1  0  0  0
 36 37  1  0  0  0
 36 38  1  0  0  0
 36107  1  0  0  0
 37108  1  0  0  0
 38109  1  0  0  0
 38110  1  0  0  0
 38111  1  0  0  0
 39 40  1  0  0  0
 39112  1  0  0  0
 40 41  1  0  0  0
 40 43  1  0  0  0
 40113  1  0  0  0
 41 42  2  0  0  0
 41 48  1  0  0  0
 43 44  1  0  0  0
 43114  1  0  0  0
 43115  1  0  0  0
 44 45  1  0  0  0
 44116  1  0  0  0
 44117  1  0  0  0
 45 46  2  0  0  0
 45 47  1  0  0  0
 47118  1  0  0  0
 47119  1  0  0  0
 48 49  1  0  0  0
 48120  1  0  0  0
 49 50  1  0  0  0
 49 52  1  0  0  0
 49121  1  0  0  0
 50 51  2  0  0  0
 50 55  1  0  0  0
 52 53  1  0  0  0
 52 54  1  0  0  0
 52122  1  0  0  0
 53123  1  0  0  0
 54124  1  0  0  0
 54125  1  0  0  0
 54126  1  0  0  0
 55 56  1  0  0  0
 55127  1  0  0  0
 56 57  1  0  0  0
 56 59  1  0  0  0
 56128  1  0  0  0
 57 58  2  0  0  0
 57 63  1  0  0  0
 59 60  1  0  0  0
 59129  1  0  0  0
 59130  1  0  0  0
 60 61  2  0  0  0
 60 62  1  0  0  0
 63 64  1  0  0  0
 63131  1  0  0  0
 64 65  1  0  0  0
 64 67  1  0  0  0
 64132  1  0  0  0
 65 66  1  0  0  0
 65 71  2  0  0  0
 67 68  1  0  0  0
 67133  1  0  0  0
 67134  1  0  0  0
 68 69  1  0  0  0
 68135  1  0  0  0
 68136  1  0  0  0
 69 70  1  0  0  0
 70137  1  0  0  0
 70138  1  0  0  0
 70139  1  0  0  0
M  CHG  4   1   1  10   1  62  -1  66  -1
M  END
> <s_m_source_file>
../5e0m_ligand.sdf

> <i_m_source_file_index>
1

> <s_epik_input>
W0hdL049QyhbTkgyXSlcW05IXVtDSDJdW0NIMl1bQ0gyXVtDQEhdKFtOSDMrXSlDKD1PKVtOSF1bQ0BASF0oW0NIMl1bT0hdKUMoPU8pW05IXVtDQEBIXShbQ0BIXShbT0hdKVtDSDNdKUMoPU8pW05IXVtDQEBIXShbQ0BIXShbT0hdKVtDSDNdKUMoPU8pW05IXVtDQEBIXShbQ0BIXShbT0hdKVtDSDNdKUMoPU8pW05IXVtDQEBIXShbQ0gyXVtDSDJdQyg9TylbTkgyXSlDKD1PKVtOSF1bQ0BASF0oW0NASF0oW09IXSlbQ0gzXSlDKD1PKVtOSF1bQ0BASF0oW0NIMl1DKD1PKVtPSF0pQyg9TylbTkhdW0NASF0oQyg9TylbT0hdKVtDSDJdW0NIMl1TW0NIM10=

> <s_epik_cmdline>
J2VwaWtfYXBwJywgJy1pbWFlJywgJ2xpZ2FuZF9wcm8ubWFlJywgJy1vbWFlJywgJ2xpZ2FuZF9wcmVwLm1hZScsICctbXMnLCAnMScsICctcGgnLCAnNycsICctcGh0JywgJzAuNScsICctbnQn

> <r_epik_Ionization_Penalty>
  0.1488

> <r_epik_Ionization_Penalty_Charging>
  0.1488

> <r_epik_Ionization_Penalty_Neutral>
  0.0000

> <r_epik_State_Penalty>
  0.1363

> <r_epik_Charging_Adjusted_Penalty>
0.285089188376118

> <i_epik_Tot_Q>
0

> <i_epik_Tot_abs_Q>
4

> <s_epik_Chemistry_Notes>
This compound has an imine and may undergo hydrolysis.

$$$$
