5e1b_ligand
                    3D
 Schrodinger Suite 2020-3.
103103  0  0  1  0            999 V2000
    6.9220   35.8220  -16.4540 N   0  3  0  0  0  0
    6.4050   35.5960  -15.0500 C   0  0  2  0  0  0
    5.5500   34.3690  -15.0360 C   0  0  0  0  0  0
    5.0660   33.8960  -16.0950 O   0  0  0  0  0  0
    5.5280   36.8160  -14.6450 C   0  0  0  0  0  0
    6.2670   38.0080  -14.6720 O   0  0  0  0  0  0
    5.2240   33.8310  -13.8330 N   0  0  0  0  0  0
    4.0910   32.9210  -13.8030 C   0  0  2  0  0  0
    2.8790   33.6010  -14.4350 C   0  0  0  0  0  0
    2.7560   34.8300  -14.3240 O   0  0  0  0  0  0
    3.8450   32.6870  -12.2900 C   0  0  0  0  0  0
    4.4670   33.8500  -11.6480 C   0  0  0  0  0  0
    5.6670   34.2220  -12.4860 C   0  0  0  0  0  0
    2.0760   32.8380  -15.1550 N   0  0  0  0  0  0
    0.9870   33.4420  -15.9420 C   0  0  2  0  0  0
   -0.1030   32.4750  -16.2980 C   0  0  0  0  0  0
    0.1050   31.2650  -16.4150 O   0  0  0  0  0  0
    1.5560   34.1150  -17.2160 C   0  0  0  0  0  0
    2.1060   33.1010  -18.2080 C   0  0  0  0  0  0
    2.5620   33.7380  -19.5200 C   0  0  0  0  0  0
    3.7150   34.6860  -19.3620 C   0  0  0  0  0  0
    4.2970   35.0910  -20.6670 N   0  3  0  0  0  0
   -1.2920   33.0320  -16.5260 N   0  0  0  0  0  0
   -2.4710   32.2620  -16.9160 C   0  0  2  0  0  0
   -2.2270   31.5030  -18.2210 C   0  0  0  0  0  0
   -1.6490   32.0670  -19.1640 O   0  0  0  0  0  0
   -3.6590   33.2200  -17.0910 C   0  0  0  0  0  0
   -4.9960   32.5670  -17.4260 C   0  0  0  0  0  0
   -6.0750   33.6260  -17.6720 C   0  0  0  0  0  0
   -6.3570   34.3640  -16.4390 N   0  0  0  0  0  0
   -7.1420   33.9170  -15.4590 C   0  0  0  0  0  0
   -7.7590   32.7400  -15.5740 N   0  0  0  0  0  0
   -7.3200   34.6430  -14.3680 N   0  3  0  0  0  0
   -2.6600   30.2530  -18.2690 N   0  0  0  0  0  0
   -2.5890   29.4420  -19.5080 C   0  0  2  0  0  0
   -3.4260   30.1740  -20.5560 C   0  0  0  0  0  0
   -4.5800   30.5050  -20.3080 O   0  0  0  0  0  0
   -3.0710   27.9970  -19.2960 C   0  0  2  0  0  0
   -2.1180   27.2380  -18.3640 C   0  0  0  0  0  0
   -3.2140   27.2440  -20.6150 C   0  0  0  0  0  0
   -2.6160   25.8710  -17.9500 C   0  0  0  0  0  0
   -2.8310   30.4960  -21.7150 N   0  0  0  0  0  0
   -3.5770   31.1730  -22.7760 C   0  0  2  0  0  0
   -4.5730   30.2200  -23.4100 C   0  0  0  0  0  0
   -4.3420   29.0070  -23.4900 O   0  0  0  0  0  0
   -2.6290   31.7080  -23.8410 C   0  0  0  0  0  0
   -5.6320   30.6830  -23.8600 O   0  5  0  0  0  0
    7.5451   34.9677  -16.7572 H   0  0  0  0  0  0
    7.5240   36.7423  -16.4793 H   0  0  0  0  0  0
    6.0727   35.9203  -17.1461 H   0  0  0  0  0  0
    7.2512   35.4435  -14.3640 H   0  0  0  0  0  0
    4.6859   36.9111  -15.3463 H   0  0  0  0  0  0
    5.1415   36.6676  -13.6259 H   0  0  0  0  0  0
    5.7839   38.9607  -14.4092 H   0  0  0  0  0  0
    4.3098   32.0079  -14.3760 H   0  0  0  0  0  0
    2.7631   32.6358  -12.0981 H   0  0  0  0  0  0
    4.3168   31.7417  -11.9837 H   0  0  0  0  0  0
    3.7445   34.6787  -11.6114 H   0  0  0  0  0  0
    4.7725   33.5845  -10.6252 H   0  0  0  0  0  0
    6.5729   33.6577  -12.2198 H   0  0  0  0  0  0
    5.8885   35.2994  -12.4712 H   0  0  0  0  0  0
    2.2229   31.7479  -15.1654 H   0  0  0  0  0  0
    0.5264   34.1703  -15.2583 H   0  0  0  0  0  0
    0.7591   34.6841  -17.7171 H   0  0  0  0  0  0
    2.3732   34.7964  -16.9369 H   0  0  0  0  0  0
    2.9731   32.5885  -17.7658 H   0  0  0  0  0  0
    1.3267   32.3626  -18.4477 H   0  0  0  0  0  0
    2.8793   32.9503  -20.2192 H   0  0  0  0  0  0
    1.7294   34.3058  -19.9608 H   0  0  0  0  0  0
    3.3740   35.5951  -18.8451 H   0  0  0  0  0  0
    4.5078   34.2039  -18.7712 H   0  0  0  0  0  0
    5.1349   35.7829  -20.4959 H   0  0  0  0  0  0
    3.5267   35.5907  -21.2727 H   0  0  0  0  0  0
    4.6605   34.1994  -21.1989 H   0  0  0  0  0  0
   -1.3621   34.1234  -16.4082 H   0  0  0  0  0  0
   -2.6460   31.5405  -16.1044 H   0  0  0  0  0  0
   -3.8171   33.7821  -16.1588 H   0  0  0  0  0  0
   -3.4464   33.9219  -17.9108 H   0  0  0  0  0  0
   -4.8879   31.9549  -18.3335 H   0  0  0  0  0  0
   -5.3121   31.9280  -16.5883 H   0  0  0  0  0  0
   -5.7272   34.3321  -18.4404 H   0  0  0  0  0  0
   -6.9982   33.1361  -18.0152 H   0  0  0  0  0  0
   -5.9089   35.3554  -16.2767 H   0  0  0  0  0  0
   -7.6162   32.1302  -16.4783 H   0  0  0  0  0  0
   -8.4107   32.3792  -14.7646 H   0  0  0  0  0  0
   -6.8148   35.6147  -14.2655 H   0  0  0  0  0  0
   -3.0827   29.8189  -17.3510 H   0  0  0  0  0  0
   -1.5349   29.3677  -19.8136 H   0  0  0  0  0  0
   -4.0679   28.0487  -18.8338 H   0  0  0  0  0  0
   -1.1516   27.0909  -18.8685 H   0  0  0  0  0  0
   -1.9659   27.8193  -17.4426 H   0  0  0  0  0  0
   -3.8983   27.7932  -21.2784 H   0  0  0  0  0  0
   -3.6183   26.2394  -20.4217 H   0  0  0  0  0  0
   -2.2286   27.1564  -21.0959 H   0  0  0  0  0  0
   -1.8776   25.3973  -17.2863 H   0  0  0  0  0  0
   -2.7591   25.2466  -18.8442 H   0  0  0  0  0  0
   -3.5734   25.9751  -17.4184 H   0  0  0  0  0  0
   -1.7702   30.2452  -21.8625 H   0  0  0  0  0  0
   -4.1077   32.0055  -22.2909 H   0  0  0  0  0  0
   -1.9088   32.3982  -23.3775 H   0  0  0  0  0  0
   -3.2058   32.2422  -24.6104 H   0  0  0  0  0  0
   -2.0877   30.8700  -24.3044 H   0  0  0  0  0  0
   -7.9733   34.2751  -13.5631 H   0  0  0  0  0  0
  1  2  1  0  0  0
  1 48  1  0  0  0
  1 49  1  0  0  0
  1 50  1  0  0  0
  2  3  1  0  0  0
  2  5  1  0  0  0
  2 51  1  0  0  0
  3  4  2  0  0  0
  3  7  1  0  0  0
  5  6  1  0  0  0
  5 52  1  0  0  0
  5 53  1  0  0  0
  6 54  1  0  0  0
  7  8  1  0  0  0
  7 13  1  0  0  0
  8  9  1  0  0  0
  8 11  1  0  0  0
  8 55  1  0  0  0
  9 10  2  0  0  0
  9 14  1  0  0  0
 11 12  1  0  0  0
 11 56  1  0  0  0
 11 57  1  0  0  0
 12 13  1  0  0  0
 12 58  1  0  0  0
 12 59  1  0  0  0
 13 60  1  0  0  0
 13 61  1  0  0  0
 14 15  1  0  0  0
 14 62  1  0  0  0
 15 16  1  0  0  0
 15 18  1  0  0  0
 15 63  1  0  0  0
 16 17  2  0  0  0
 16 23  1  0  0  0
 18 19  1  0  0  0
 18 64  1  0  0  0
 18 65  1  0  0  0
 19 20  1  0  0  0
 19 66  1  0  0  0
 19 67  1  0  0  0
 20 21  1  0  0  0
 20 68  1  0  0  0
 20 69  1  0  0  0
 21 22  1  0  0  0
 21 70  1  0  0  0
 21 71  1  0  0  0
 22 72  1  0  0  0
 22 73  1  0  0  0
 22 74  1  0  0  0
 23 24  1  0  0  0
 23 75  1  0  0  0
 24 25  1  0  0  0
 24 27  1  0  0  0
 24 76  1  0  0  0
 25 26  2  0  0  0
 25 34  1  0  0  0
 27 28  1  0  0  0
 27 77  1  0  0  0
 27 78  1  0  0  0
 28 29  1  0  0  0
 28 79  1  0  0  0
 28 80  1  0  0  0
 29 30  1  0  0  0
 29 81  1  0  0  0
 29 82  1  0  0  0
 30 31  1  0  0  0
 30 83  1  0  0  0
 31 32  1  0  0  0
 31 33  2  0  0  0
 32 84  1  0  0  0
 32 85  1  0  0  0
 33 86  1  0  0  0
 33103  1  0  0  0
 34 35  1  0  0  0
 34 87  1  0  0  0
 35 36  1  0  0  0
 35 38  1  0  0  0
 35 88  1  0  0  0
 36 37  2  0  0  0
 36 42  1  0  0  0
 38 39  1  0  0  0
 38 40  1  0  0  0
 38 89  1  0  0  0
 39 41  1  0  0  0
 39 90  1  0  0  0
 39 91  1  0  0  0
 40 92  1  0  0  0
 40 93  1  0  0  0
 40 94  1  0  0  0
 41 95  1  0  0  0
 41 96  1  0  0  0
 41 97  1  0  0  0
 42 43  1  0  0  0
 42 98  1  0  0  0
 43 44  1  0  0  0
 43 46  1  0  0  0
 43 99  1  0  0  0
 44 45  2  0  0  0
 44 47  1  0  0  0
 46100  1  0  0  0
 46101  1  0  0  0
 46102  1  0  0  0
M  CHG  4   1   1  22   1  33   1  47  -1
M  END
> <s_m_source_file>
../5e1b_ligand.sdf

> <i_m_source_file_index>
1

> <s_epik_input>
W09IXVtDSDJdW0NASF0oW05IMytdKUMoPU8pTjFbQ0BASF0oW0NIMl1bQ0gyXVtDSDJdMSlDKD1PKVtOSF1bQ0BASF0oW0NIMl1bQ0gyXVtDSDJdW0NIMl1bTkgzK10pQyg9TylbTkhdW0NAQEhdKFtDSDJdW0NIMl1bQ0gyXVtOSF0vQyhbTkgyXSk9TlxbSF0pQyg9TylbTkhdW0NAQEhdKFtDQEBIXShbQ0gzXSlbQ0gyXVtDSDNdKUMoPU8pW05IXVtDQEBIXShbQ0gzXSlDKD1PKVtPSF0=

> <s_epik_cmdline>
J2VwaWtfYXBwJywgJy1pbWFlJywgJ2xpZ2FuZF9wcm8ubWFlJywgJy1vbWFlJywgJ2xpZ2FuZF9wcmVwLm1hZScsICctbXMnLCAnMScsICctcGgnLCAnNycsICctcGh0JywgJzAuNScsICctbnQn

> <r_epik_Ionization_Penalty>
  0.1419

> <r_epik_Ionization_Penalty_Charging>
  0.1419

> <r_epik_Ionization_Penalty_Neutral>
  0.0000

> <r_epik_State_Penalty>
  0.1306

> <r_epik_Charging_Adjusted_Penalty>
0.272471831972385

> <i_epik_Tot_Q>
2

> <i_epik_Tot_abs_Q>
4

> <s_epik_Chemistry_Notes>
This compound has an imine and may undergo hydrolysis.

$$$$
