5e1d_ligand
                    3D
 Schrodinger Suite 2020-3.
113114  0  0  1  0            999 V2000
    7.0150   34.5310  -15.8900 N   0  3  0  0  0  0
    6.2860   34.6710  -14.5950 C   0  0  2  0  0  0
    5.1180   33.7210  -14.5700 C   0  0  0  0  0  0
    4.6930   33.2660  -15.6230 O   0  0  0  0  0  0
    5.8450   36.1340  -14.3910 C   0  0  0  0  0  0
    5.1570   36.7650  -15.5680 C   0  0  0  0  0  0
    3.8200   36.5250  -15.8200 C   0  0  0  0  0  0
    5.8580   37.5190  -16.4600 C   0  0  0  0  0  0
    3.1990   37.0710  -16.9250 C   0  0  0  0  0  0
    5.2590   38.0620  -17.5760 C   0  0  0  0  0  0
    3.9280   37.8190  -17.7860 C   0  0  0  0  0  0
    3.3220   38.3420  -18.9030 O   0  0  0  0  0  0
    4.5320   33.4370  -13.3970 N   0  0  0  0  0  0
    3.3030   32.6480  -13.2990 C   0  0  2  0  0  0
    2.2600   33.2710  -14.2250 C   0  0  0  0  0  0
    2.0290   34.4650  -14.1660 O   0  0  0  0  0  0
    2.8810   32.7950  -11.8260 C   0  0  0  0  0  0
    4.1190   33.1370  -11.1430 C   0  0  0  0  0  0
    4.9890   33.8970  -12.0700 C   0  0  0  0  0  0
    1.6940   32.4480  -15.1000 N   0  0  0  0  0  0
    0.9040   32.9650  -16.1950 C   0  0  2  0  0  0
   -0.2900   32.0940  -16.5010 C   0  0  0  0  0  0
   -0.1720   30.8910  -16.6340 O   0  0  0  0  0  0
    1.8150   32.9860  -17.4490 C   0  0  0  0  0  0
    1.2060   33.5320  -18.7070 C   0  0  0  0  0  0
    2.2450   33.6040  -19.8090 C   0  0  0  0  0  0
    3.2460   34.6760  -19.5810 C   0  0  0  0  0  0
    4.0270   34.9870  -20.8150 N   0  3  0  0  0  0
   -1.4540   32.7190  -16.6940 N   0  0  0  0  0  0
   -2.6610   31.9700  -17.0840 C   0  0  2  0  0  0
   -2.4480   31.2210  -18.4040 C   0  0  0  0  0  0
   -1.8950   31.7880  -19.3530 O   0  0  0  0  0  0
   -3.8490   32.9230  -17.2200 C   0  0  0  0  0  0
   -5.1850   32.2790  -17.5890 C   0  0  0  0  0  0
   -6.2810   33.3300  -17.6550 C   0  0  0  0  0  0
   -6.6750   33.7400  -16.3200 N   0  0  0  0  0  0
   -7.5320   33.0570  -15.5670 C   0  0  0  0  0  0
   -8.0850   31.9520  -16.0350 N   0  0  0  0  0  0
   -7.8290   33.4820  -14.3590 N   0  3  0  0  0  0
   -2.8900   29.9740  -18.4600 N   0  0  0  0  0  0
   -2.8350   29.1790  -19.7020 C   0  0  2  0  0  0
   -3.6800   29.8890  -20.7480 C   0  0  0  0  0  0
   -4.8630   30.1920  -20.5210 O   0  0  0  0  0  0
   -3.2850   27.7350  -19.4970 C   0  0  2  0  0  0
   -2.3210   27.0050  -18.5430 C   0  0  0  0  0  0
   -3.3340   26.9950  -20.8290 C   0  0  0  0  0  0
   -2.7470   25.5930  -18.1900 C   0  0  0  0  0  0
   -3.0580   30.1990  -21.8920 N   0  0  0  0  0  0
   -3.7660   30.8780  -22.9570 C   0  0  2  0  0  0
   -4.6570   29.8900  -23.6820 C   0  0  0  0  0  0
   -4.4490   28.6730  -23.6920 O   0  5  0  0  0  0
   -2.7790   31.4960  -23.9220 C   0  0  0  0  0  0
   -5.6440   30.3290  -24.2750 O   0  0  0  0  0  0
    7.3247   33.4842  -16.0251 H   0  0  0  0  0  0
    7.9043   35.1784  -15.8820 H   0  0  0  0  0  0
    6.3532   34.8273  -16.7172 H   0  0  0  0  0  0
    6.9621   34.3844  -13.7760 H   0  0  0  0  0  0
    5.1395   36.1902  -13.5490 H   0  0  0  0  0  0
    6.7260   36.7556  -14.1733 H   0  0  0  0  0  0
    3.2483   35.8964  -15.1373 H   0  0  0  0  0  0
    6.9193   37.6973  -16.2867 H   0  0  0  0  0  0
    2.1368   36.9023  -17.1018 H   0  0  0  0  0  0
    5.8317   38.6710  -18.2755 H   0  0  0  0  0  0
    2.2535   38.1564  -19.0869 H   0  0  0  0  0  0
    3.4613   31.6020  -13.6003 H   0  0  0  0  0  0
    2.1246   33.5889  -11.7388 H   0  0  0  0  0  0
    2.4577   31.8444  -11.4692 H   0  0  0  0  0  0
    3.8925   33.7520  -10.2596 H   0  0  0  0  0  0
    4.6301   32.2156  -10.8270 H   0  0  0  0  0  0
    6.0551   33.6562  -11.9456 H   0  0  0  0  0  0
    4.8471   34.9849  -11.9901 H   0  0  0  0  0  0
    1.8312   31.3626  -14.9852 H   0  0  0  0  0  0
    0.5396   33.9476  -15.8608 H   0  0  0  0  0  0
    2.7005   33.6071  -17.2485 H   0  0  0  0  0  0
    2.1330   31.9605  -17.6884 H   0  0  0  0  0  0
    0.3846   32.8762  -19.0313 H   0  0  0  0  0  0
    0.8151   34.5424  -18.5166 H   0  0  0  0  0  0
    2.7833   32.6466  -19.8685 H   0  0  0  0  0  0
    1.7477   33.8053  -20.7693 H   0  0  0  0  0  0
    2.7329   35.5945  -19.2598 H   0  0  0  0  0  0
    3.9521   34.3582  -18.7997 H   0  0  0  0  0  0
    4.7534   35.7841  -20.5980 H   0  0  0  0  0  0
    3.3419   35.3212  -21.6080 H   0  0  0  0  0  0
    4.5611   34.0849  -21.1480 H   0  0  0  0  0  0
   -1.5035   33.8094  -16.5576 H   0  0  0  0  0  0
   -2.8372   31.2463  -16.2745 H   0  0  0  0  0  0
   -4.0137   33.4423  -16.2644 H   0  0  0  0  0  0
   -3.6382   33.6618  -18.0072 H   0  0  0  0  0  0
   -5.0979   31.7908  -18.5709 H   0  0  0  0  0  0
   -5.4531   31.5298  -16.8295 H   0  0  0  0  0  0
   -5.9132   34.2092  -18.2042 H   0  0  0  0  0  0
   -7.1573   32.9139  -18.1736 H   0  0  0  0  0  0
   -6.2594   34.6594  -15.8819 H   0  0  0  0  0  0
   -7.8355   31.5977  -17.0460 H   0  0  0  0  0  0
   -8.7949   31.3864  -15.4136 H   0  0  0  0  0  0
   -7.3678   34.4021  -13.9708 H   0  0  0  0  0  0
   -3.3078   29.5332  -17.5429 H   0  0  0  0  0  0
   -1.7815   29.1314  -20.0149 H   0  0  0  0  0  0
   -4.2964   27.7543  -19.0650 H   0  0  0  0  0  0
   -1.3269   26.9354  -19.0088 H   0  0  0  0  0  0
   -2.2452   27.5648  -17.5992 H   0  0  0  0  0  0
   -4.0220   27.5147  -21.5120 H   0  0  0  0  0  0
   -3.6880   25.9666  -20.6643 H   0  0  0  0  0  0
   -2.3273   26.9698  -21.2717 H   0  0  0  0  0  0
   -2.0076   25.1464  -17.5089 H   0  0  0  0  0  0
   -2.8120   24.9895  -19.1074 H   0  0  0  0  0  0
   -3.7303   25.6190  -17.6977 H   0  0  0  0  0  0
   -1.9982   29.9327  -22.0185 H   0  0  0  0  0  0
   -4.3709   31.6673  -22.4868 H   0  0  0  0  0  0
   -2.1387   32.2106  -23.3841 H   0  0  0  0  0  0
   -3.3255   32.0213  -24.7191 H   0  0  0  0  0  0
   -2.1550   30.7056  -24.3646 H   0  0  0  0  0  0
   -8.5387   32.9175  -13.7364 H   0  0  0  0  0  0
  1  2  1  0  0  0
  1 54  1  0  0  0
  1 55  1  0  0  0
  1 56  1  0  0  0
  2  3  1  0  0  0
  2  5  1  0  0  0
  2 57  1  0  0  0
  3  4  2  0  0  0
  3 13  1  0  0  0
  5  6  1  0  0  0
  5 58  1  0  0  0
  5 59  1  0  0  0
  6  7  2  0  0  0
  6  8  1  0  0  0
  7  9  1  0  0  0
  7 60  1  0  0  0
  8 10  2  0  0  0
  8 61  1  0  0  0
  9 11  2  0  0  0
  9 62  1  0  0  0
 10 11  1  0  0  0
 10 63  1  0  0  0
 11 12  1  0  0  0
 12 64  1  0  0  0
 13 14  1  0  0  0
 13 19  1  0  0  0
 14 15  1  0  0  0
 14 17  1  0  0  0
 14 65  1  0  0  0
 15 16  2  0  0  0
 15 20  1  0  0  0
 17 18  1  0  0  0
 17 66  1  0  0  0
 17 67  1  0  0  0
 18 19  1  0  0  0
 18 68  1  0  0  0
 18 69  1  0  0  0
 19 70  1  0  0  0
 19 71  1  0  0  0
 20 21  1  0  0  0
 20 72  1  0  0  0
 21 22  1  0  0  0
 21 24  1  0  0  0
 21 73  1  0  0  0
 22 23  2  0  0  0
 22 29  1  0  0  0
 24 25  1  0  0  0
 24 74  1  0  0  0
 24 75  1  0  0  0
 25 26  1  0  0  0
 25 76  1  0  0  0
 25 77  1  0  0  0
 26 27  1  0  0  0
 26 78  1  0  0  0
 26 79  1  0  0  0
 27 28  1  0  0  0
 27 80  1  0  0  0
 27 81  1  0  0  0
 28 82  1  0  0  0
 28 83  1  0  0  0
 28 84  1  0  0  0
 29 30  1  0  0  0
 29 85  1  0  0  0
 30 31  1  0  0  0
 30 33  1  0  0  0
 30 86  1  0  0  0
 31 32  2  0  0  0
 31 40  1  0  0  0
 33 34  1  0  0  0
 33 87  1  0  0  0
 33 88  1  0  0  0
 34 35  1  0  0  0
 34 89  1  0  0  0
 34 90  1  0  0  0
 35 36  1  0  0  0
 35 91  1  0  0  0
 35 92  1  0  0  0
 36 37  1  0  0  0
 36 93  1  0  0  0
 37 38  1  0  0  0
 37 39  2  0  0  0
 38 94  1  0  0  0
 38 95  1  0  0  0
 39 96  1  0  0  0
 39113  1  0  0  0
 40 41  1  0  0  0
 40 97  1  0  0  0
 41 42  1  0  0  0
 41 44  1  0  0  0
 41 98  1  0  0  0
 42 43  2  0  0  0
 42 48  1  0  0  0
 44 45  1  0  0  0
 44 46  1  0  0  0
 44 99  1  0  0  0
 45 47  1  0  0  0
 45100  1  0  0  0
 45101  1  0  0  0
 46102  1  0  0  0
 46103  1  0  0  0
 46104  1  0  0  0
 47105  1  0  0  0
 47106  1  0  0  0
 47107  1  0  0  0
 48 49  1  0  0  0
 48108  1  0  0  0
 49 50  1  0  0  0
 49 52  1  0  0  0
 49109  1  0  0  0
 50 51  1  0  0  0
 50 53  2  0  0  0
 52110  1  0  0  0
 52111  1  0  0  0
 52112  1  0  0  0
M  CHG  4   1   1  28   1  39   1  51  -1
M  END
> <s_m_source_file>
../5e1d_ligand.sdf

> <i_m_source_file_index>
1

> <s_epik_input>
W2NIXTFbY0hdYyhbT0hdKVtjSF1bY0hdYzFbQ0gyXVtDQEhdKFtOSDMrXSlDKD1PKU4yW0NAQEhdKFtDSDJdW0NIMl1bQ0gyXTIpQyg9TylbTkhdW0NAQEhdKFtDSDJdW0NIMl1bQ0gyXVtDSDJdW05IMytdKUMoPU8pW05IXVtDQEBIXShbQ0gyXVtDSDJdW0NIMl1bTkhdL0MoW05IMl0pPU5cW0hdKUMoPU8pW05IXVtDQEBIXShbQ0BASF0oW0NIM10pW0NIMl1bQ0gzXSlDKD1PKVtOSF1bQ0BASF0oW0NIM10pQyg9TylbT0hd

> <s_epik_cmdline>
J2VwaWtfYXBwJywgJy1pbWFlJywgJ2xpZ2FuZF9wcm8ubWFlJywgJy1vbWFlJywgJ2xpZ2FuZF9wcmVwLm1hZScsICctbXMnLCAnMScsICctcGgnLCAnNycsICctcGh0JywgJzAuNScsICctbnQn

> <r_lp_tautomer_probability>
0.999999999997365

> <r_epik_Ionization_Penalty>
  0.1980

> <r_epik_Ionization_Penalty_Charging>
  0.1948

> <r_epik_Ionization_Penalty_Neutral>
  0.0032

> <r_epik_State_Penalty>
  0.1839

> <r_epik_Charging_Adjusted_Penalty>
0.378770140617551

> <i_epik_Tot_Q>
2

> <i_epik_Tot_abs_Q>
4

> <s_epik_Chemistry_Notes>
This compound has an imine and may undergo hydrolysis.

$$$$
