5e1e_ligand
                    3D
 Schrodinger Suite 2020-3.
 51 54  0  0  1  0            999 V2000
  -20.8620  -20.1420   19.4790 C   0  0  0  0  0  0
  -20.7310  -19.1220   17.3110 C   0  0  0  0  0  0
  -21.1940  -18.5800   14.9970 C   0  0  0  0  0  0
  -21.5780  -18.5610   16.3300 C   0  0  0  0  0  0
  -23.7460  -17.6530   15.8540 C   0  0  0  0  0  0
  -17.8450  -20.3320   15.2320 C   0  0  0  0  0  0
  -16.1150  -21.0850   14.0970 C   0  0  0  0  0  0
  -15.9510  -21.3180   15.4530 C   0  0  0  0  0  0
  -14.1390  -22.0530   13.5310 C   0  0  0  0  0  0
  -15.3980  -21.8260   18.2940 C   0  0  0  0  0  0
  -17.2340  -22.4300   19.7490 C   0  0  0  0  0  0
  -17.7590  -24.8200   20.2060 N   0  3  0  0  0  0
  -16.4350  -25.1930   19.6670 C   0  0  0  0  0  0
  -21.1990  -19.0640   18.5970 O   0  0  0  0  0  0
  -19.5210  -19.6880   16.9360 C   0  0  0  0  0  0
  -19.1290  -19.7170   15.5970 C   0  0  0  0  0  0
  -19.9890  -19.1520   14.6650 C   0  0  0  0  0  0
  -22.7480  -18.0320   16.8050 O   0  0  0  0  0  0
  -19.6240  -19.1550   13.3680 F   0  0  0  0  0  0
  -17.3320  -20.4480   13.9700 N   0  0  0  0  0  0
  -17.0420  -20.8430   16.1550 N   0  0  0  0  0  0
  -14.7740  -21.9670   15.8600 C   0  0  0  0  0  0
  -13.8710  -22.3350   14.8610 C   0  0  0  0  0  0
  -15.2530  -21.4280   13.1270 N   0  0  0  0  0  0
  -12.4030  -23.1550   15.2950 Cl  0  0  0  0  0  0
  -14.5010  -22.2190   17.2210 N   0  5  0  0  0  0
  -15.8320  -22.8480   19.3140 C   0  0  0  0  0  0
  -17.8120  -23.4370   20.7130 C   0  0  0  0  0  0
  -15.8910  -24.2200   18.6590 C   0  0  0  0  0  0
  -21.3045  -19.9577   20.4691 H   0  0  0  0  0  0
  -19.7682  -20.2104   19.5732 H   0  0  0  0  0  0
  -21.2546  -21.0854   19.0717 H   0  0  0  0  0  0
  -21.8354  -18.1497   14.2279 H   0  0  0  0  0  0
  -24.6214  -17.2480   16.3828 H   0  0  0  0  0  0
  -24.0469  -18.5337   15.2676 H   0  0  0  0  0  0
  -23.3375  -16.8858   15.1799 H   0  0  0  0  0  0
  -13.4097  -22.3536   12.7787 H   0  0  0  0  0  0
  -14.9284  -21.0309   18.8918 H   0  0  0  0  0  0
  -16.3409  -21.4547   17.8662 H   0  0  0  0  0  0
  -17.1871  -21.4486   20.2437 H   0  0  0  0  0  0
  -17.8876  -22.3649   18.8666 H   0  0  0  0  0  0
  -18.5166  -24.9122   19.4138 H   0  0  0  0  0  0
  -18.0172  -25.4892   21.0400 H   0  0  0  0  0  0
  -15.7070  -25.2501   20.4897 H   0  0  0  0  0  0
  -16.5040  -26.1718   19.1699 H   0  0  0  0  0  0
  -18.8682  -20.1155   17.6971 H   0  0  0  0  0  0
  -15.1310  -22.8944   20.1604 H   0  0  0  0  0  0
  -17.2480  -23.4066   21.6569 H   0  0  0  0  0  0
  -18.8669  -23.1941   20.9082 H   0  0  0  0  0  0
  -14.8840  -24.5369   18.3499 H   0  0  0  0  0  0
  -16.5528  -24.1935   17.7807 H   0  0  0  0  0  0
  1 14  1  0  0  0
  1 30  1  0  0  0
  1 31  1  0  0  0
  1 32  1  0  0  0
  2  4  2  0  0  0
  2 14  1  0  0  0
  2 15  1  0  0  0
  3  4  1  0  0  0
  3 17  2  0  0  0
  3 33  1  0  0  0
  4 18  1  0  0  0
  5 18  1  0  0  0
  5 34  1  0  0  0
  5 35  1  0  0  0
  5 36  1  0  0  0
  6 16  1  0  0  0
  6 20  2  0  0  0
  6 21  1  0  0  0
  7  8  1  0  0  0
  7 20  1  0  0  0
  7 24  2  0  0  0
  8 21  2  0  0  0
  8 22  1  0  0  0
  9 23  1  0  0  0
  9 24  1  0  0  0
  9 37  1  0  0  0
 10 26  1  0  0  0
 10 27  1  0  0  0
 10 38  1  0  0  0
 10 39  1  0  0  0
 11 27  1  0  0  0
 11 28  1  0  0  0
 11 40  1  0  0  0
 11 41  1  0  0  0
 12 13  1  0  0  0
 12 28  1  0  0  0
 12 42  1  0  0  0
 12 43  1  0  0  0
 13 29  1  0  0  0
 13 44  1  0  0  0
 13 45  1  0  0  0
 15 16  2  0  0  0
 15 46  1  0  0  0
 16 17  1  0  0  0
 17 19  1  0  0  0
 22 23  2  0  0  0
 22 26  1  0  0  0
 23 25  1  0  0  0
 27 29  1  0  0  0
 27 47  1  0  0  0
 28 48  1  0  0  0
 28 49  1  0  0  0
 29 50  1  0  0  0
 29 51  1  0  0  0
M  CHG  2  12   1  26  -1
M  END
> <s_m_source_file>
../5e1e_ligand.sdf

> <i_m_source_file_index>
1

> <s_epik_input>
W0NIM11PYzFjKE9bQ0gzXSlbY0hdYyhGKWMoW2NIXTEpQyg9TjIpTj1DKEMyPTMpQyg9QyhDbClbQ0gyXU4zKVtOSF1bQ0gyXVtDSF00W0NIMl1bQ0gyXVtOSDIrXVtDSDJdW0NIMl00

> <s_epik_cmdline>
J2VwaWtfYXBwJywgJy1pbWFlJywgJ2xpZ2FuZF9wcm8ubWFlJywgJy1vbWFlJywgJ2xpZ2FuZF9wcmVwLm1hZScsICctbXMnLCAnMScsICctcGgnLCAnNycsICctcGh0JywgJzAuNScsICctbnQn

> <r_lp_tautomer_probability>
1

> <r_epik_Ionization_Penalty>
  0.0005

> <r_epik_Ionization_Penalty_Charging>
  0.0005

> <r_epik_Ionization_Penalty_Neutral>
  0.0000

> <r_epik_State_Penalty>
 -0.0000

> <r_epik_Charging_Adjusted_Penalty>
0.000494376957734571

> <i_epik_Tot_Q>
0

> <i_epik_Tot_abs_Q>
2

> <s_epik_Chemistry_Notes>
This compound has an imine and may undergo hydrolysis.

$$$$
