5e1m_ligand
                    3D
 Schrodinger Suite 2020-3.
106107  0  0  1  0            999 V2000
    7.0220   35.8150  -16.2800 N   0  3  0  0  0  0
    6.5920   35.5080  -14.8960 C   0  0  2  0  0  0
    5.6710   34.3150  -14.9160 C   0  0  0  0  0  0
    5.2530   33.8740  -15.9980 O   0  0  0  0  0  0
    5.7830   36.7710  -14.5110 C   0  0  0  0  0  0
    5.1670   37.2090  -15.8080 C   0  0  0  0  0  0
    6.2380   36.9330  -16.8650 C   0  0  0  0  0  0
    5.2740   33.8120  -13.7380 N   0  0  0  0  0  0
    4.1160   32.9220  -13.7450 C   0  0  2  0  0  0
    2.9590   33.6130  -14.4520 C   0  0  0  0  0  0
    2.8610   34.8460  -14.3560 O   0  0  0  0  0  0
    3.7990   32.7310  -12.2430 C   0  0  0  0  0  0
    4.4020   33.8850  -11.5880 C   0  0  0  0  0  0
    5.6470   34.2310  -12.3750 C   0  0  0  0  0  0
    2.1560   32.8560  -15.1900 N   0  0  0  0  0  0
    1.0600   33.4440  -15.9800 C   0  0  2  0  0  0
   -0.0510   32.4830  -16.3540 C   0  0  0  0  0  0
    0.1480   31.2620  -16.4910 O   0  0  0  0  0  0
    1.6300   34.1270  -17.2500 C   0  0  0  0  0  0
    2.1690   33.1080  -18.2410 C   0  0  0  0  0  0
    2.6260   33.7290  -19.5600 C   0  0  0  0  0  0
    3.7350   34.7450  -19.3910 C   0  0  0  0  0  0
    4.3300   35.2140  -20.6750 N   0  3  0  0  0  0
   -1.2460   33.0600  -16.5370 N   0  0  0  0  0  0
   -2.4110   32.2970  -16.9490 C   0  0  2  0  0  0
   -2.1660   31.5980  -18.2970 C   0  0  0  0  0  0
   -1.5750   32.1730  -19.2190 O   0  0  0  0  0  0
   -3.6420   33.1990  -17.0200 C   0  0  0  0  0  0
   -4.9440   32.4680  -17.3330 C   0  0  0  0  0  0
   -6.0820   33.4600  -17.4950 C   0  0  0  0  0  0
   -6.3810   34.0440  -16.1970 N   0  0  0  0  0  0
   -7.2340   33.5490  -15.2990 C   0  0  0  0  0  0
   -7.9470   32.4570  -15.5470 N   0  0  0  0  0  0
   -7.3890   34.1780  -14.1410 N   0  3  0  0  0  0
   -2.5940   30.3470  -18.3800 N   0  0  0  0  0  0
   -2.5210   29.5660  -19.6130 C   0  0  2  0  0  0
   -3.4000   30.2770  -20.6290 C   0  0  0  0  0  0
   -4.5760   30.5390  -20.3700 O   0  0  0  0  0  0
   -2.9880   28.1090  -19.4200 C   0  0  2  0  0  0
   -2.0420   27.3710  -18.4690 C   0  0  0  0  0  0
   -3.0570   27.3480  -20.7460 C   0  0  0  0  0  0
   -2.5180   25.9890  -18.0700 C   0  0  0  0  0  0
   -2.8000   30.6520  -21.7540 N   0  0  0  0  0  0
   -3.5230   31.2850  -22.8590 C   0  0  2  0  0  0
   -4.5000   30.3150  -23.5010 C   0  0  0  0  0  0
   -4.2850   29.1070  -23.5000 O   0  0  0  0  0  0
   -2.5380   31.7800  -23.9060 C   0  0  0  0  0  0
   -5.5280   30.7470  -24.0330 O   0  5  0  0  0  0
    8.0842   36.1010  -16.2790 H   0  0  0  0  0  0
    6.8822   34.9264  -16.9131 H   0  0  0  0  0  0
    7.4360   35.2632  -14.2344 H   0  0  0  0  0  0
    5.0256   36.5060  -13.7586 H   0  0  0  0  0  0
    6.4629   37.5294  -14.0956 H   0  0  0  0  0  0
    4.2521   36.6274  -15.9942 H   0  0  0  0  0  0
    4.9165   38.2786  -15.7522 H   0  0  0  0  0  0
    6.8981   37.7977  -17.0281 H   0  0  0  0  0  0
    5.8063   36.6149  -17.8255 H   0  0  0  0  0  0
    4.3285   31.9872  -14.2844 H   0  0  0  0  0  0
    2.7088   32.7030  -12.0990 H   0  0  0  0  0  0
    4.2395   31.7859  -11.8925 H   0  0  0  0  0  0
    3.6900   34.7234  -11.5939 H   0  0  0  0  0  0
    4.6552   33.6263  -10.5493 H   0  0  0  0  0  0
    6.5338   33.6682  -12.0482 H   0  0  0  0  0  0
    5.8740   35.3073  -12.3715 H   0  0  0  0  0  0
    2.3222   31.7687  -15.2040 H   0  0  0  0  0  0
    0.6033   34.1565  -15.2773 H   0  0  0  0  0  0
    0.8346   34.7041  -17.7443 H   0  0  0  0  0  0
    2.4507   34.8023  -16.9662 H   0  0  0  0  0  0
    3.0348   32.5913  -17.8012 H   0  0  0  0  0  0
    1.3841   32.3738  -18.4755 H   0  0  0  0  0  0
    2.9999   32.9385  -20.2273 H   0  0  0  0  0  0
    1.7777   34.2411  -20.0376 H   0  0  0  0  0  0
    3.3434   35.6323  -18.8720 H   0  0  0  0  0  0
    4.5497   34.3034  -18.7984 H   0  0  0  0  0  0
    5.1238   35.9461  -20.4655 H   0  0  0  0  0  0
    3.5494   35.6854  -21.2902 H   0  0  0  0  0  0
    4.7558   34.3565  -21.2166 H   0  0  0  0  0  0
   -1.3303   34.1434  -16.3662 H   0  0  0  0  0  0
   -2.5510   31.5417  -16.1616 H   0  0  0  0  0  0
   -3.7829   33.7038  -16.0529 H   0  0  0  0  0  0
   -3.4999   33.9519  -17.8093 H   0  0  0  0  0  0
   -4.8294   31.8986  -18.2671 H   0  0  0  0  0  0
   -5.1842   31.7784  -16.5104 H   0  0  0  0  0  0
   -5.7824   34.2498  -18.1996 H   0  0  0  0  0  0
   -6.9697   32.9394  -17.8836 H   0  0  0  0  0  0
   -5.8847   34.9748  -15.8852 H   0  0  0  0  0  0
   -7.8269   31.9272  -16.5035 H   0  0  0  0  0  0
   -8.6579   32.0819  -14.7960 H   0  0  0  0  0  0
   -6.8036   35.0838  -13.9244 H   0  0  0  0  0  0
   -3.0182   29.8988  -17.4694 H   0  0  0  0  0  0
   -1.4645   29.5399  -19.9183 H   0  0  0  0  0  0
   -4.0008   28.1407  -18.9920 H   0  0  0  0  0  0
   -1.0605   27.2483  -18.9503 H   0  0  0  0  0  0
   -1.9259   27.9528  -17.5427 H   0  0  0  0  0  0
   -3.7353   27.8726  -21.4349 H   0  0  0  0  0  0
   -3.4330   26.3301  -20.5654 H   0  0  0  0  0  0
   -2.0523   27.2943  -21.1906 H   0  0  0  0  0  0
   -1.7848   25.5308  -17.3899 H   0  0  0  0  0  0
   -2.6246   25.3642  -18.9690 H   0  0  0  0  0  0
   -3.4901   26.0687  -17.5614 H   0  0  0  0  0  0
   -1.7183   30.4704  -21.8369 H   0  0  0  0  0  0
   -4.0775   32.1254  -22.4160 H   0  0  0  0  0  0
   -1.8307   32.4824  -23.4409 H   0  0  0  0  0  0
   -3.0854   32.2907  -24.7119 H   0  0  0  0  0  0
   -1.9853   30.9250  -24.3227 H   0  0  0  0  0  0
   -8.1029   33.7937  -13.3976 H   0  0  0  0  0  0
  1  2  1  0  0  0
  1  7  1  0  0  0
  1 49  1  0  0  0
  1 50  1  0  0  0
  2  3  1  0  0  0
  2  5  1  0  0  0
  2 51  1  0  0  0
  3  4  2  0  0  0
  3  8  1  0  0  0
  5  6  1  0  0  0
  5 52  1  0  0  0
  5 53  1  0  0  0
  6  7  1  0  0  0
  6 54  1  0  0  0
  6 55  1  0  0  0
  7 56  1  0  0  0
  7 57  1  0  0  0
  8  9  1  0  0  0
  8 14  1  0  0  0
  9 10  1  0  0  0
  9 12  1  0  0  0
  9 58  1  0  0  0
 10 11  2  0  0  0
 10 15  1  0  0  0
 12 13  1  0  0  0
 12 59  1  0  0  0
 12 60  1  0  0  0
 13 14  1  0  0  0
 13 61  1  0  0  0
 13 62  1  0  0  0
 14 63  1  0  0  0
 14 64  1  0  0  0
 15 16  1  0  0  0
 15 65  1  0  0  0
 16 17  1  0  0  0
 16 19  1  0  0  0
 16 66  1  0  0  0
 17 18  2  0  0  0
 17 24  1  0  0  0
 19 20  1  0  0  0
 19 67  1  0  0  0
 19 68  1  0  0  0
 20 21  1  0  0  0
 20 69  1  0  0  0
 20 70  1  0  0  0
 21 22  1  0  0  0
 21 71  1  0  0  0
 21 72  1  0  0  0
 22 23  1  0  0  0
 22 73  1  0  0  0
 22 74  1  0  0  0
 23 75  1  0  0  0
 23 76  1  0  0  0
 23 77  1  0  0  0
 24 25  1  0  0  0
 24 78  1  0  0  0
 25 26  1  0  0  0
 25 28  1  0  0  0
 25 79  1  0  0  0
 26 27  2  0  0  0
 26 35  1  0  0  0
 28 29  1  0  0  0
 28 80  1  0  0  0
 28 81  1  0  0  0
 29 30  1  0  0  0
 29 82  1  0  0  0
 29 83  1  0  0  0
 30 31  1  0  0  0
 30 84  1  0  0  0
 30 85  1  0  0  0
 31 32  1  0  0  0
 31 86  1  0  0  0
 32 33  1  0  0  0
 32 34  2  0  0  0
 33 87  1  0  0  0
 33 88  1  0  0  0
 34 89  1  0  0  0
 34106  1  0  0  0
 35 36  1  0  0  0
 35 90  1  0  0  0
 36 37  1  0  0  0
 36 39  1  0  0  0
 36 91  1  0  0  0
 37 38  2  0  0  0
 37 43  1  0  0  0
 39 40  1  0  0  0
 39 41  1  0  0  0
 39 92  1  0  0  0
 40 42  1  0  0  0
 40 93  1  0  0  0
 40 94  1  0  0  0
 41 95  1  0  0  0
 41 96  1  0  0  0
 41 97  1  0  0  0
 42 98  1  0  0  0
 42 99  1  0  0  0
 42100  1  0  0  0
 43 44  1  0  0  0
 43101  1  0  0  0
 44 45  1  0  0  0
 44 47  1  0  0  0
 44102  1  0  0  0
 45 46  2  0  0  0
 45 48  1  0  0  0
 47103  1  0  0  0
 47104  1  0  0  0
 47105  1  0  0  0
M  CHG  4   1   1  23   1  34   1  48  -1
M  END
> <s_m_source_file>
../5e1m_ligand.sdf

> <i_m_source_file_index>
1

> <s_epik_input>
W0NIMl0xW0NIMl1bQ0gyXVtOSDIrXVtDQEBIXTFDKD1PKU4yW0NAQEhdKFtDSDJdW0NIMl1bQ0gyXTIpQyg9TylbTkhdW0NAQEhdKFtDSDJdW0NIMl1bQ0gyXVtDSDJdW05IMytdKUMoPU8pW05IXVtDQEBIXShbQ0gyXVtDSDJdW0NIMl1bTkhdL0MoW05IMl0pPU5cW0hdKUMoPU8pW05IXVtDQEBIXShbQ0BASF0oW0NIM10pW0NIMl1bQ0gzXSlDKD1PKVtOSF1bQ0BASF0oW0NIM10pQyg9TylbT0hd

> <s_epik_cmdline>
J2VwaWtfYXBwJywgJy1pbWFlJywgJ2xpZ2FuZF9wcm8ubWFlJywgJy1vbWFlJywgJ2xpZ2FuZF9wcmVwLm1hZScsICctbXMnLCAnMScsICctcGgnLCAnNycsICctcGh0JywgJzAuNScsICctbnQn

> <r_epik_Ionization_Penalty>
  0.0387

> <r_epik_Ionization_Penalty_Charging>
  0.0387

> <r_epik_Ionization_Penalty_Neutral>
  0.0000

> <r_epik_State_Penalty>
  0.0319

> <r_epik_Charging_Adjusted_Penalty>
0.0706048080196944

> <i_epik_Tot_Q>
2

> <i_epik_Tot_abs_Q>
4

> <s_epik_Chemistry_Notes>
This compound has an imine and may undergo hydrolysis.

$$$$
