5e1o_ligand
                    3D
 Schrodinger Suite 2020-3.
116116  0  0  1  0            999 V2000
    7.9870   35.2380  -16.5260 N   0  3  0  0  0  0
    7.1200   35.5130  -15.3380 C   0  0  2  0  0  0
    5.9820   34.5050  -15.2810 C   0  0  0  0  0  0
    5.6000   33.9510  -16.3200 O   0  0  0  0  0  0
    6.5530   36.9420  -15.4320 C   0  0  0  0  0  0
    5.4830   37.1170  -16.4980 C   0  0  0  0  0  0
    5.3860   38.5460  -17.0000 C   0  0  0  0  0  0
    4.3890   38.6430  -18.0670 N   0  0  0  0  0  0
    3.0820   38.7290  -17.8710 C   0  0  0  0  0  0
    2.5740   38.7590  -16.6500 N   0  0  0  0  0  0
    2.2720   38.7980  -18.9010 N   0  3  0  0  0  0
    5.4210   34.2340  -14.0790 N   0  0  0  0  0  0
    4.2470   33.3430  -14.0280 C   0  0  2  0  0  0
    3.0440   33.9880  -14.7090 C   0  0  0  0  0  0
    2.9490   35.1980  -14.6980 O   0  0  0  0  0  0
    3.9730   33.1710  -12.5270 C   0  0  0  0  0  0
    4.6460   34.3130  -11.8780 C   0  0  0  0  0  0
    5.7970   34.7260  -12.7440 C   0  0  0  0  0  0
    2.1800   33.1920  -15.3260 N   0  0  0  0  0  0
    1.0840   33.7430  -16.1080 C   0  0  2  0  0  0
   -0.0080   32.7520  -16.4000 C   0  0  0  0  0  0
    0.2010   31.5340  -16.4660 O   0  0  0  0  0  0
    1.6080   34.3690  -17.4320 C   0  0  0  0  0  0
    2.0430   33.3300  -18.4530 C   0  0  0  0  0  0
    2.5470   33.9460  -19.7800 C   0  0  0  0  0  0
    3.8010   34.7730  -19.5970 C   0  0  0  0  0  0
    4.3410   35.2730  -20.8880 N   0  3  0  0  0  0
   -1.1960   33.3010  -16.6360 N   0  0  0  0  0  0
   -2.3750   32.5310  -16.9930 C   0  0  2  0  0  0
   -2.1140   31.7970  -18.3120 C   0  0  0  0  0  0
   -1.5040   32.3450  -19.2300 O   0  0  0  0  0  0
   -3.5810   33.4890  -17.1020 C   0  0  0  0  0  0
   -4.8830   32.8880  -17.6010 C   0  0  0  0  0  0
   -5.9420   33.9870  -17.7750 C   0  0  0  0  0  0
   -6.2970   34.4950  -16.4510 N   0  0  0  0  0  0
   -7.1420   33.8880  -15.6100 C   0  0  0  0  0  0
   -7.7640   32.7470  -15.9460 N   0  0  0  0  0  0
   -7.3690   34.4310  -14.4180 N   0  3  0  0  0  0
   -2.5380   30.5430  -18.3610 N   0  0  0  0  0  0
   -2.5060   29.7600  -19.5610 C   0  0  2  0  0  0
   -3.3640   30.4620  -20.6160 C   0  0  0  0  0  0
   -4.5530   30.7310  -20.4000 O   0  0  0  0  0  0
   -3.0150   28.3350  -19.3090 C   0  0  2  0  0  0
   -2.0000   27.5890  -18.4220 C   0  0  0  0  0  0
   -3.2570   27.5860  -20.6260 C   0  0  0  0  0  0
   -2.3920   26.1630  -18.0780 C   0  0  0  0  0  0
   -2.7290   30.7960  -21.7350 N   0  0  0  0  0  0
   -3.4160   31.4090  -22.8580 C   0  0  2  0  0  0
   -4.4150   30.4240  -23.4740 C   0  0  0  0  0  0
   -4.2290   29.1910  -23.4550 O   0  5  0  0  0  0
   -2.4070   31.8770  -23.9040 C   0  0  0  0  0  0
   -5.4520   30.8550  -23.9990 O   0  0  0  0  0  0
    8.3908   34.2171  -16.4568 H   0  0  0  0  0  0
    8.8168   35.9597  -16.5492 H   0  0  0  0  0  0
    7.3908   35.3350  -17.4453 H   0  0  0  0  0  0
    7.7381   35.4053  -14.4345 H   0  0  0  0  0  0
    6.0992   37.2205  -14.4694 H   0  0  0  0  0  0
    7.3655   37.6439  -15.6710 H   0  0  0  0  0  0
    5.7140   36.4721  -17.3587 H   0  0  0  0  0  0
    4.5031   36.8380  -16.0833 H   0  0  0  0  0  0
    5.0906   39.2064  -16.1714 H   0  0  0  0  0  0
    6.3634   38.8641  -17.3918 H   0  0  0  0  0  0
    4.7086   38.6479  -19.1195 H   0  0  0  0  0  0
    3.2394   38.7021  -15.7759 H   0  0  0  0  0  0
    1.4862   38.8408  -16.5087 H   0  0  0  0  0  0
    2.6784   38.7743  -19.9229 H   0  0  0  0  0  0
    4.4560   32.4022  -14.5584 H   0  0  0  0  0  0
    2.8877   33.1863  -12.3483 H   0  0  0  0  0  0
    4.3872   32.2106  -12.1863 H   0  0  0  0  0  0
    3.9344   35.1449  -11.7701 H   0  0  0  0  0  0
    5.0081   34.0091  -10.8848 H   0  0  0  0  0  0
    6.7424   34.2572  -12.4333 H   0  0  0  0  0  0
    5.9231   35.8182  -12.7778 H   0  0  0  0  0  0
    2.3009   32.1020  -15.2402 H   0  0  0  0  0  0
    0.6527   34.4912  -15.4267 H   0  0  0  0  0  0
    0.8126   34.9742  -17.8914 H   0  0  0  0  0  0
    2.4770   35.0081  -17.2167 H   0  0  0  0  0  0
    2.8633   32.7272  -18.0361 H   0  0  0  0  0  0
    1.1929   32.6751  -18.6947 H   0  0  0  0  0  0
    2.7739   33.1413  -20.4949 H   0  0  0  0  0  0
    1.7686   34.6004  -20.1995 H   0  0  0  0  0  0
    3.5771   35.6428  -18.9620 H   0  0  0  0  0  0
    4.5782   34.1595  -19.1178 H   0  0  0  0  0  0
    5.2485   35.8658  -20.7009 H   0  0  0  0  0  0
    3.5866   35.9034  -21.3815 H   0  0  0  0  0  0
    4.5876   34.4200  -21.5373 H   0  0  0  0  0  0
   -1.2596   34.3957  -16.5491 H   0  0  0  0  0  0
   -2.5489   31.7921  -16.1969 H   0  0  0  0  0  0
   -3.8056   33.9099  -16.1109 H   0  0  0  0  0  0
   -3.3400   34.3040  -17.8004 H   0  0  0  0  0  0
   -4.7121   32.3959  -18.5699 H   0  0  0  0  0  0
   -5.2480   32.1482  -16.8734 H   0  0  0  0  0  0
   -5.5301   34.7986  -18.3928 H   0  0  0  0  0  0
   -6.8303   33.5655  -18.2682 H   0  0  0  0  0  0
   -5.8597   35.4367  -16.0878 H   0  0  0  0  0  0
   -7.5821   32.2907  -16.9302 H   0  0  0  0  0  0
   -8.4556   32.2683  -15.2371 H   0  0  0  0  0  0
   -6.8636   35.3659  -14.1343 H   0  0  0  0  0  0
   -2.9265   30.1060  -17.4293 H   0  0  0  0  0  0
   -1.4487   29.7147  -19.8610 H   0  0  0  0  0  0
   -3.9850   28.3880  -18.7930 H   0  0  0  0  0  0
   -1.0299   27.5381  -18.9381 H   0  0  0  0  0  0
   -1.8809   28.1263  -17.4696 H   0  0  0  0  0  0
   -3.9843   28.1421  -21.2358 H   0  0  0  0  0  0
   -3.6513   26.5821  -20.4098 H   0  0  0  0  0  0
   -2.3089   27.4968  -21.1766 H   0  0  0  0  0  0
   -1.6135   25.7111  -17.4458 H   0  0  0  0  0  0
   -2.4977   25.5784  -19.0037 H   0  0  0  0  0  0
   -3.3488   26.1665  -17.5352 H   0  0  0  0  0  0
   -1.6493   30.5943  -21.7944 H   0  0  0  0  0  0
   -3.9511   32.2765  -22.4442 H   0  0  0  0  0  0
   -1.7003   32.5821  -23.4420 H   0  0  0  0  0  0
   -2.9379   32.3767  -24.7277 H   0  0  0  0  0  0
   -1.8560   31.0094  -24.2958 H   0  0  0  0  0  0
   -8.0622   33.9454  -13.7154 H   0  0  0  0  0  0
    1.1865   38.8795  -18.7426 H   0  0  0  0  0  0
  1  2  1  0  0  0
  1 53  1  0  0  0
  1 54  1  0  0  0
  1 55  1  0  0  0
  2  3  1  0  0  0
  2  5  1  0  0  0
  2 56  1  0  0  0
  3  4  2  0  0  0
  3 12  1  0  0  0
  5  6  1  0  0  0
  5 57  1  0  0  0
  5 58  1  0  0  0
  6  7  1  0  0  0
  6 59  1  0  0  0
  6 60  1  0  0  0
  7  8  1  0  0  0
  7 61  1  0  0  0
  7 62  1  0  0  0
  8  9  1  0  0  0
  8 63  1  0  0  0
  9 10  1  0  0  0
  9 11  2  0  0  0
 10 64  1  0  0  0
 10 65  1  0  0  0
 11 66  1  0  0  0
 11116  1  0  0  0
 12 13  1  0  0  0
 12 18  1  0  0  0
 13 14  1  0  0  0
 13 16  1  0  0  0
 13 67  1  0  0  0
 14 15  2  0  0  0
 14 19  1  0  0  0
 16 17  1  0  0  0
 16 68  1  0  0  0
 16 69  1  0  0  0
 17 18  1  0  0  0
 17 70  1  0  0  0
 17 71  1  0  0  0
 18 72  1  0  0  0
 18 73  1  0  0  0
 19 20  1  0  0  0
 19 74  1  0  0  0
 20 21  1  0  0  0
 20 23  1  0  0  0
 20 75  1  0  0  0
 21 22  2  0  0  0
 21 28  1  0  0  0
 23 24  1  0  0  0
 23 76  1  0  0  0
 23 77  1  0  0  0
 24 25  1  0  0  0
 24 78  1  0  0  0
 24 79  1  0  0  0
 25 26  1  0  0  0
 25 80  1  0  0  0
 25 81  1  0  0  0
 26 27  1  0  0  0
 26 82  1  0  0  0
 26 83  1  0  0  0
 27 84  1  0  0  0
 27 85  1  0  0  0
 27 86  1  0  0  0
 28 29  1  0  0  0
 28 87  1  0  0  0
 29 30  1  0  0  0
 29 32  1  0  0  0
 29 88  1  0  0  0
 30 31  2  0  0  0
 30 39  1  0  0  0
 32 33  1  0  0  0
 32 89  1  0  0  0
 32 90  1  0  0  0
 33 34  1  0  0  0
 33 91  1  0  0  0
 33 92  1  0  0  0
 34 35  1  0  0  0
 34 93  1  0  0  0
 34 94  1  0  0  0
 35 36  1  0  0  0
 35 95  1  0  0  0
 36 37  1  0  0  0
 36 38  2  0  0  0
 37 96  1  0  0  0
 37 97  1  0  0  0
 38 98  1  0  0  0
 38115  1  0  0  0
 39 40  1  0  0  0
 39 99  1  0  0  0
 40 41  1  0  0  0
 40 43  1  0  0  0
 40100  1  0  0  0
 41 42  2  0  0  0
 41 47  1  0  0  0
 43 44  1  0  0  0
 43 45  1  0  0  0
 43101  1  0  0  0
 44 46  1  0  0  0
 44102  1  0  0  0
 44103  1  0  0  0
 45104  1  0  0  0
 45105  1  0  0  0
 45106  1  0  0  0
 46107  1  0  0  0
 46108  1  0  0  0
 46109  1  0  0  0
 47 48  1  0  0  0
 47110  1  0  0  0
 48 49  1  0  0  0
 48 51  1  0  0  0
 48111  1  0  0  0
 49 50  1  0  0  0
 49 52  2  0  0  0
 51112  1  0  0  0
 51113  1  0  0  0
 51114  1  0  0  0
M  CHG  5   1   1  11   1  27   1  38   1  50  -1
M  END
> <s_m_source_file>
../5e1o_ligand.sdf

> <i_m_source_file_index>
1

> <s_epik_input>
W0hdL049QyhbTkgyXSlcW05IXVtDSDJdW0NIMl1bQ0gyXVtDQEhdKFtOSDMrXSlDKD1PKU4xW0NAQEhdKFtDSDJdW0NIMl1bQ0gyXTEpQyg9TylbTkhdW0NAQEhdKFtDSDJdW0NIMl1bQ0gyXVtDSDJdW05IMytdKUMoPU8pW05IXVtDQEBIXShbQ0gyXVtDSDJdW0NIMl1bTkhdL0MoW05IMl0pPU5cW0hdKUMoPU8pW05IXVtDQEBIXShbQ0BASF0oW0NIM10pW0NIMl1bQ0gzXSlDKD1PKVtOSF1bQ0BASF0oW0NIM10pQyg9TylbT0hd

> <s_epik_cmdline>
J2VwaWtfYXBwJywgJy1pbWFlJywgJ2xpZ2FuZF9wcm8ubWFlJywgJy1vbWFlJywgJ2xpZ2FuZF9wcmVwLm1hZScsICctbXMnLCAnMScsICctcGgnLCAnNycsICctcGh0JywgJzAuNScsICctbnQn

> <r_epik_Ionization_Penalty>
  0.1279

> <r_epik_Ionization_Penalty_Charging>
  0.1279

> <r_epik_Ionization_Penalty_Neutral>
  0.0000

> <r_epik_State_Penalty>
  0.1167

> <r_epik_Charging_Adjusted_Penalty>
0.244566439496192

> <i_epik_Tot_Q>
3

> <i_epik_Tot_abs_Q>
5

> <s_epik_Chemistry_Notes>
This compound has an imine and may undergo hydrolysis.

$$$$
