5e1s_ligand
                    3D
 Schrodinger Suite 2020-3.
 77 82  0  0  1  0            999 V2000
    5.4830   21.3110   18.1690 N   0  0  0  0  0  0
    5.6060   20.3500   15.6600 C   0  0  0  0  0  0
    6.5210   21.6490   17.3990 C   0  0  0  0  0  0
    6.6130   21.1720   16.0880 C   0  0  0  0  0  0
    8.3850   22.8870   15.4830 C   0  0  0  0  0  0
    8.4350   23.1890   16.9390 C   0  0  0  0  0  0
    1.0910   19.0980   23.0840 C   0  0  0  0  0  0
    7.7200   21.7570   21.1160 C   0  0  0  0  0  0
    7.2430   21.5690   22.3980 C   0  0  0  0  0  0
    6.4940   22.5350   23.0020 C   0  0  0  0  0  0
    6.6780   23.8950   21.0550 C   0  0  0  0  0  0
    8.8930   20.4960   15.3230 C   0  0  0  0  0  0
    3.9680   21.3280   20.5740 C   0  0  0  0  0  0
    7.4320   22.9210   20.4240 C   0  0  0  0  0  0
    4.5620   20.5040   17.6420 C   0  0  0  0  0  0
    3.4910   20.1350   18.4300 N   0  0  0  0  0  0
    4.5750   19.9970   16.4130 N   0  0  0  0  0  0
    7.7750   21.5230   15.2110 C   0  0  1  0  0  0
    7.9460   23.1400   19.0610 C   0  0  0  0  0  0
    7.5600   22.5620   17.8640 C   0  0  0  0  0  0
    9.2480   23.9670   17.4840 N   0  0  0  0  0  0
    8.9740   23.9510   18.7720 N   0  0  0  0  0  0
   -0.1370   18.8950   23.8430 N   0  0  2  0  0  0
    1.1960   20.4560   22.6330 C   0  0  0  0  0  0
    2.2080   20.6160   21.5980 N   0  0  0  0  0  0
    6.2100   23.6930   22.3330 C   0  0  0  0  0  0
    9.7750   24.7690   19.6670 C   0  0  0  0  0  0
    3.2950   21.3790   21.7410 C   0  0  0  0  0  0
    3.2280   20.5140   19.7220 C   0  0  0  0  0  0
    2.1230   20.0800   20.3590 N   0  0  0  0  0  0
   -0.0150   19.4460   25.2010 C   0  0  0  0  0  0
   -1.2660   19.1600   26.0170 C   0  0  0  0  0  0
   -1.5450   17.7210   26.0430 N   0  3  2  0  0  0
   -1.7050   17.2240   24.6830 C   0  0  0  0  0  0
   -0.4460   17.4700   23.8890 C   0  0  0  0  0  0
   -2.7080   17.3920   26.8740 C   0  0  0  0  0  0
   -2.3680   17.1270   28.3230 C   0  0  0  0  0  0
   -1.8910   15.8080   28.4530 O   0  0  0  0  0  0
   -2.9030   14.8850   28.7570 C   0  0  0  0  0  0
    5.6551   19.9639   14.6418 H   0  0  0  0  0  0
    7.7751   23.6464   14.9718 H   0  0  0  0  0  0
    9.4049   22.8977   15.0710 H   0  0  0  0  0  0
    1.9579   18.8692   23.7212 H   0  0  0  0  0  0
    1.0945   18.4333   22.2076 H   0  0  0  0  0  0
    8.3274   20.9838   20.6456 H   0  0  0  0  0  0
    7.4663   20.6440   22.9297 H   0  0  0  0  0  0
    6.1226   22.3844   24.0156 H   0  0  0  0  0  0
    6.4537   24.8273   20.5367 H   0  0  0  0  0  0
    8.4884   19.4912   15.1316 H   0  0  0  0  0  0
    9.3234   20.5314   16.3347 H   0  0  0  0  0  0
    9.6751   20.7233   14.5836 H   0  0  0  0  0  0
    4.9089   21.8273   20.3428 H   0  0  0  0  0  0
    2.7220   19.4574   18.0306 H   0  0  0  0  0  0
    7.3246   21.5341   14.2075 H   0  0  0  0  0  0
    0.2300   20.7806   22.2189 H   0  0  0  0  0  0
    1.4682   21.1035   23.4795 H   0  0  0  0  0  0
    5.6079   24.4625   22.8161 H   0  0  0  0  0  0
    9.4175   24.6409   20.6994 H   0  0  0  0  0  0
    9.6853   25.8261   19.3764 H   0  0  0  0  0  0
   10.8285   24.4592   19.6026 H   0  0  0  0  0  0
    3.5831   21.9369   22.6320 H   0  0  0  0  0  0
    0.8487   18.9888   25.7059 H   0  0  0  0  0  0
    0.1282   20.5351   25.1433 H   0  0  0  0  0  0
   -1.1200   19.5141   27.0482 H   0  0  0  0  0  0
   -2.1239   19.6820   25.5681 H   0  0  0  0  0  0
   -0.6827   17.2147   26.5014 H   0  0  0  0  0  0
   -1.9096   16.1435   24.7092 H   0  0  0  0  0  0
   -2.5444   17.7445   24.1988 H   0  0  0  0  0  0
   -0.5911   17.0931   22.8658 H   0  0  0  0  0  0
    0.3859   16.9296   24.3643 H   0  0  0  0  0  0
   -3.4214   18.2291   26.8541 H   0  0  0  0  0  0
   -3.1943   16.4865   26.4822 H   0  0  0  0  0  0
   -1.5927   17.8342   28.6529 H   0  0  0  0  0  0
   -3.2690   17.2563   28.9406 H   0  0  0  0  0  0
   -2.4672   13.8788   28.8448 H   0  0  0  0  0  0
   -3.6564   14.8897   27.9555 H   0  0  0  0  0  0
   -3.3788   15.1629   29.7091 H   0  0  0  0  0  0
  1  3  2  0  0  0
  1 15  1  0  0  0
  2  4  2  0  0  0
  2 17  1  0  0  0
  2 40  1  0  0  0
  3  4  1  0  0  0
  3 20  1  0  0  0
  4 18  1  0  0  0
  5  6  1  0  0  0
  5 18  1  0  0  0
  5 41  1  0  0  0
  5 42  1  0  0  0
  6 20  1  0  0  0
  6 21  2  0  0  0
  7 23  1  0  0  0
  7 24  1  0  0  0
  7 43  1  0  0  0
  7 44  1  0  0  0
  8  9  2  0  0  0
  8 14  1  0  0  0
  8 45  1  0  0  0
  9 10  1  0  0  0
  9 46  1  0  0  0
 10 26  2  0  0  0
 10 47  1  0  0  0
 11 14  2  0  0  0
 11 26  1  0  0  0
 11 48  1  0  0  0
 12 18  1  0  0  0
 12 49  1  0  0  0
 12 50  1  0  0  0
 12 51  1  0  0  0
 13 28  2  0  0  0
 13 29  1  0  0  0
 13 52  1  0  0  0
 14 19  1  0  0  0
 15 16  1  0  0  0
 15 17  2  0  0  0
 16 29  1  0  0  0
 16 53  1  0  0  0
 18 54  1  0  0  0
 19 20  2  0  0  0
 19 22  1  0  0  0
 21 22  1  0  0  0
 22 27  1  0  0  0
 23 31  1  0  0  0
 23 35  1  0  0  0
 24 25  1  0  0  0
 24 55  1  0  0  0
 24 56  1  0  0  0
 25 28  1  0  0  0
 25 30  1  0  0  0
 26 57  1  0  0  0
 27 58  1  0  0  0
 27 59  1  0  0  0
 27 60  1  0  0  0
 28 61  1  0  0  0
 29 30  2  0  0  0
 31 32  1  0  0  0
 31 62  1  0  0  0
 31 63  1  0  0  0
 32 33  1  0  0  0
 32 64  1  0  0  0
 32 65  1  0  0  0
 33 34  1  0  0  0
 33 36  1  0  0  0
 33 66  1  0  0  0
 34 35  1  0  0  0
 34 67  1  0  0  0
 34 68  1  0  0  0
 35 69  1  0  0  0
 35 70  1  0  0  0
 36 37  1  0  0  0
 36 71  1  0  0  0
 36 72  1  0  0  0
 37 38  1  0  0  0
 37 73  1  0  0  0
 37 74  1  0  0  0
 38 39  1  0  0  0
 39 75  1  0  0  0
 39 76  1  0  0  0
 39 77  1  0  0  0
M  CHG  1  33   1
M  END
> <s_m_source_file>
../5e1s_ligand.sdf

> <i_m_source_file_index>
1

> <s_epik_input>
W2NIXTFbY0hdW2NIXVtjSF1bY0hdYzEtYyhuKG4yKVtDSDNdKWMzYzJbQ0gyXVtDQEBIXShbQ0gzXSljKGMzNClbY0hdbmMobjQpW05IXWMobjUpW2NIXVtjSF1uNVtDSDJdW0NIMl1bTkBASCtdNltDSDJdW0NIMl1bTkBIK10oW0NIMl1bQ0gyXTYpW0NIMl1bQ0gyXU9bQ0gzXQ==

> <s_epik_cmdline>
J2VwaWtfYXBwJywgJy1pbWFlJywgJ2xpZ2FuZF9wcm8ubWFlJywgJy1vbWFlJywgJ2xpZ2FuZF9wcmVwLm1hZScsICctbXMnLCAnMScsICctcGgnLCAnNycsICctcGh0JywgJzAuNScsICctbnQn

> <r_lp_tautomer_probability>
1

> <r_epik_Ionization_Penalty>
  0.0674

> <r_epik_Ionization_Penalty_Charging>
  0.0639

> <r_epik_Ionization_Penalty_Neutral>
  0.0035

> <r_epik_State_Penalty>
 -0.0000

> <r_epik_Charging_Adjusted_Penalty>
0.0639284763894751

> <i_epik_Tot_Q>
1

> <i_epik_Tot_abs_Q>
1

$$$$
