5e2o_ligand
                    3D
 Schrodinger Suite 2020-3.
 59 62  0  0  1  0            999 V2000
   42.1080  -21.1080   29.8130 N   0  0  0  0  0  0
   46.2810  -21.1150   30.4520 C   0  0  0  0  0  0
   45.7530  -20.5180   29.3110 C   0  0  0  0  0  0
   44.3890  -20.5170   29.0760 C   0  0  0  0  0  0
   43.5150  -21.0780   30.0030 C   0  0  0  0  0  0
   45.4000  -21.6660   31.3820 C   0  0  0  0  0  0
   44.0320  -21.6460   31.1630 C   0  0  0  0  0  0
   38.0400  -17.6890   29.3210 C   0  0  0  0  0  0
   38.0280  -16.8770   28.2790 C   0  0  0  0  0  0
   37.0770  -15.7860   27.9950 C   0  0  0  0  0  0
   37.4890  -14.7900   27.0940 C   0  0  0  0  0  0
   41.9330  -24.9780   28.0390 C   0  0  0  0  0  0
   41.1740  -23.9130   27.5690 C   0  0  0  0  0  0
   35.2120  -14.3910   28.6360 C   0  0  0  0  0  0
   39.1150  -18.6930   29.4900 C   0  0  0  0  0  0
   39.1310  -19.6990   28.5920 N   0  0  0  0  0  0
   39.7460  -18.8040   30.5470 O   0  0  0  0  0  0
   39.8820  -20.9100   28.8650 C   0  0  2  0  0  0
   41.3800  -20.6650   28.7600 C   0  0  0  0  0  0
   39.4880  -22.0730   27.9380 C   0  0  0  0  0  0
   40.1530  -23.3720   28.3410 C   0  0  0  0  0  0
   39.8840  -23.9530   29.5750 C   0  0  0  0  0  0
   40.6470  -25.0080   30.0480 C   0  0  0  0  0  0
   41.6730  -25.5200   29.2830 C   0  0  0  0  0  0
   41.8490  -20.1670   27.7410 O   0  0  0  0  0  0
   36.7870  -13.5830   27.0240 C   0  0  0  0  0  0
   35.6430  -13.3840   27.7890 C   0  0  0  0  0  0
   35.9020  -15.5910   28.7420 C   0  0  0  0  0  0
   33.7990  -14.1240   29.6260 Cl  0  0  0  0  0  0
   38.5570  -15.0190   26.1760 N   0  0  0  0  0  0
   38.6620  -14.9920   24.8330 C   0  0  0  0  0  0
   39.8720  -15.2980   24.4580 N   0  0  0  0  0  0
   40.5540  -15.5380   25.6020 N   0  0  0  0  0  0
   39.7900  -15.3710   26.6330 N   0  0  0  0  0  0
   47.7590  -21.1220   30.6810 C   0  0  0  0  0  0
   48.5190  -20.4240   30.0070 O   0  0  0  0  0  0
   48.1570  -21.8030   31.7180 O   0  5  0  0  0  0
   41.4572  -21.5369   30.5892 H   0  0  0  0  0  0
   46.4227  -20.0449   28.5928 H   0  0  0  0  0  0
   43.9971  -20.0746   28.1602 H   0  0  0  0  0  0
   45.7926  -22.1182   32.2928 H   0  0  0  0  0  0
   43.3578  -22.0773   31.9030 H   0  0  0  0  0  0
   38.0938  -17.0970   30.2466 H   0  0  0  0  0  0
   37.1211  -18.2936   29.3253 H   0  0  0  0  0  0
   38.9724  -16.3141   28.2419 H   0  0  0  0  0  0
   37.9156  -17.4657   27.3566 H   0  0  0  0  0  0
   42.7354  -25.3867   27.4248 H   0  0  0  0  0  0
   41.3820  -23.4971   26.5832 H   0  0  0  0  0  0
   38.5721  -19.5991   27.6499 H   0  0  0  0  0  0
   39.6013  -21.1430   29.9027 H   0  0  0  0  0  0
   38.3985  -22.2194   27.9762 H   0  0  0  0  0  0
   39.7905  -21.8386   26.9067 H   0  0  0  0  0  0
   39.0604  -23.5727   30.1793 H   0  0  0  0  0  0
   40.4353  -25.4347   31.0284 H   0  0  0  0  0  0
   42.2756  -26.3476   29.6573 H   0  0  0  0  0  0
   37.1397  -12.7907   26.3637 H   0  0  0  0  0  0
   35.0918  -12.4460   27.7227 H   0  0  0  0  0  0
   35.5347  -16.3778   29.4009 H   0  0  0  0  0  0
   37.8461  -14.7475   24.1529 H   0  0  0  0  0  0
  1  5  1  0  0  0
  1 19  1  0  0  0
  1 38  1  0  0  0
  2  3  2  0  0  0
  2  6  1  0  0  0
  2 35  1  0  0  0
  3  4  1  0  0  0
  3 39  1  0  0  0
  4  5  2  0  0  0
  4 40  1  0  0  0
  5  7  1  0  0  0
  6  7  2  0  0  0
  6 41  1  0  0  0
  7 42  1  0  0  0
  8  9  1  0  0  0
  8 15  1  0  0  0
  8 43  1  0  0  0
  8 44  1  0  0  0
  9 10  1  0  0  0
  9 45  1  0  0  0
  9 46  1  0  0  0
 10 11  2  0  0  0
 10 28  1  0  0  0
 11 26  1  0  0  0
 11 30  1  0  0  0
 12 13  2  0  0  0
 12 24  1  0  0  0
 12 47  1  0  0  0
 13 21  1  0  0  0
 13 48  1  0  0  0
 14 27  1  0  0  0
 14 28  2  0  0  0
 14 29  1  0  0  0
 15 16  1  0  0  0
 15 17  2  0  0  0
 16 18  1  0  0  0
 16 49  1  0  0  0
 18 19  1  0  0  0
 18 20  1  0  0  0
 18 50  1  0  0  0
 19 25  2  0  0  0
 20 21  1  0  0  0
 20 51  1  0  0  0
 20 52  1  0  0  0
 21 22  2  0  0  0
 22 23  1  0  0  0
 22 53  1  0  0  0
 23 24  2  0  0  0
 23 54  1  0  0  0
 24 55  1  0  0  0
 26 27  2  0  0  0
 26 56  1  0  0  0
 27 57  1  0  0  0
 28 58  1  0  0  0
 30 31  1  0  0  0
 30 34  1  0  0  0
 31 32  2  0  0  0
 31 59  1  0  0  0
 32 33  1  0  0  0
 33 34  2  0  0  0
 35 36  2  0  0  0
 35 37  1  0  0  0
M  CHG  1  37  -1
M  END
> <s_m_source_file>
../5e2o_ligand.sdf

> <i_m_source_file_index>
1

> <s_epik_input>
Tz1DKFtPSF0pYzFbY0hdW2NIXWMoW2NIXVtjSF0xKVtOSF1DKD1PKVtDQEhdKFtDSDJdYzJbY0hdW2NIXVtjSF1bY0hdW2NIXTIpW05IXUMoPU8pW0NIMl1bQ0gyXWMzYyhbY0hdW2NIXWMoQ2wpW2NIXTMpLW40W2NIXW5ubjQ=

> <s_epik_cmdline>
J2VwaWtfYXBwJywgJy1pbWFlJywgJ2xpZ2FuZF9wcm8ubWFlJywgJy1vbWFlJywgJ2xpZ2FuZF9wcmVwLm1hZScsICctbXMnLCAnMScsICctcGgnLCAnNycsICctcGh0JywgJzAuNScsICctbnQn

> <r_lp_tautomer_probability>
1

> <r_epik_Ionization_Penalty>
  0.0010

> <r_epik_Ionization_Penalty_Charging>
  0.0010

> <r_epik_Ionization_Penalty_Neutral>
  0.0000

> <r_epik_State_Penalty>
 -0.0000

> <r_epik_Charging_Adjusted_Penalty>
0.00102220753207212

> <i_epik_Tot_Q>
-1

> <i_epik_Tot_abs_Q>
1

$$$$
