5e2p_ligand
                    3D
 Schrodinger Suite 2020-3.
 63 67  0  0  1  0            999 V2000
   42.9850  -20.9830   29.3140 C   0  0  0  0  0  0
   43.2650  -20.7550   28.1400 O   0  0  0  0  0  0
   44.0600  -21.3230   30.2960 C   0  0  0  0  0  0
   43.7760  -22.0270   31.4690 C   0  0  0  0  0  0
   44.7790  -22.3370   32.3700 C   0  0  0  0  0  0
   46.1080  -21.9960   32.0960 C   0  0  0  0  0  0
   46.4180  -21.3190   30.8970 C   0  0  0  0  0  0
   45.3790  -20.9660   30.0190 C   0  0  0  0  0  0
   47.8270  -21.0910   30.6400 C   0  0  0  0  0  0
   48.7770  -21.4840   31.5270 C   0  0  0  0  0  0
   48.4630  -22.1270   32.7630 C   0  0  0  0  0  0
   49.2950  -22.4070   33.6340 O   0  5  0  0  0  0
   47.1340  -22.3640   32.9750 N   0  0  0  0  0  0
   48.1030  -20.5090   29.5000 O   0  0  0  0  0  0
   41.7140  -20.9590   29.7740 N   0  0  0  0  0  0
   40.5690  -20.7300   28.9100 C   0  0  2  0  0  0
   39.8590  -19.4740   29.3890 C   0  0  0  0  0  0
   39.9610  -19.1120   30.5600 O   0  0  0  0  0  0
   39.5780  -21.9100   28.9250 C   0  0  0  0  0  0
   40.2400  -23.2660   28.9120 C   0  0  0  0  0  0
   40.1780  -24.0900   30.0270 C   0  0  0  0  0  0
   41.0390  -23.6540   27.8450 C   0  0  0  0  0  0
   40.9560  -25.2300   30.1120 C   0  0  0  0  0  0
   41.8090  -24.8040   27.9200 C   0  0  0  0  0  0
   41.7830  -25.5860   29.0630 C   0  0  0  0  0  0
   36.7230  -13.6350   27.2900 C   0  0  0  0  0  0
   35.6070  -13.4260   28.0880 C   0  0  0  0  0  0
   35.0990  -14.4750   28.8250 C   0  0  0  0  0  0
   35.6650  -15.7320   28.7740 C   0  0  0  0  0  0
   36.7580  -15.9670   27.9450 C   0  0  0  0  0  0
   37.2950  -14.9030   27.2080 C   0  0  0  0  0  0
   33.7020  -14.2100   29.8480 Cl  0  0  0  0  0  0
   38.4030  -15.1090   26.3310 N   0  0  0  0  0  0
   38.4960  -15.1640   24.9930 C   0  0  0  0  0  0
   39.7290  -15.4170   24.6510 N   0  0  0  0  0  0
   40.4210  -15.5170   25.8140 N   0  0  0  0  0  0
   39.6420  -15.3330   26.8330 N   0  0  0  0  0  0
   37.2650  -17.3800   27.8190 C   0  0  0  0  0  0
   38.3680  -17.6320   28.8050 C   0  0  0  0  0  0
   39.1050  -18.8460   28.4920 N   0  0  0  0  0  0
   42.7515  -22.3358   31.6768 H   0  0  0  0  0  0
   44.5323  -22.8503   33.2994 H   0  0  0  0  0  0
   45.6068  -20.4069   29.1114 H   0  0  0  0  0  0
   49.8240  -21.3009   31.2854 H   0  0  0  0  0  0
   46.8935  -22.8831   33.9145 H   0  0  0  0  0  0
   41.5659  -21.1223   30.8517 H   0  0  0  0  0  0
   40.9835  -20.6159   27.8975 H   0  0  0  0  0  0
   38.9603  -21.8585   29.8337 H   0  0  0  0  0  0
   38.9301  -21.8560   28.0377 H   0  0  0  0  0  0
   39.5068  -23.8350   30.8471 H   0  0  0  0  0  0
   41.0610  -23.0481   26.9392 H   0  0  0  0  0  0
   40.9171  -25.8493   31.0081 H   0  0  0  0  0  0
   42.4367  -25.0938   27.0773 H   0  0  0  0  0  0
   42.4096  -26.4750   29.1348 H   0  0  0  0  0  0
   37.1525  -12.8065   26.7268 H   0  0  0  0  0  0
   35.1371  -12.4434   28.1317 H   0  0  0  0  0  0
   35.2570  -16.5396   29.3818 H   0  0  0  0  0  0
   37.6681  -15.0194   24.2988 H   0  0  0  0  0  0
   36.4425  -18.0835   28.0152 H   0  0  0  0  0  0
   37.6510  -17.5417   26.8017 H   0  0  0  0  0  0
   39.0723  -16.7871   28.7911 H   0  0  0  0  0  0
   37.9414  -17.7372   29.8134 H   0  0  0  0  0  0
   39.0504  -19.2775   27.4816 H   0  0  0  0  0  0
  1  2  2  0  0  0
  1  3  1  0  0  0
  1 15  1  0  0  0
  3  4  2  0  0  0
  3  8  1  0  0  0
  4  5  1  0  0  0
  4 41  1  0  0  0
  5  6  2  0  0  0
  5 42  1  0  0  0
  6  7  1  0  0  0
  6 13  1  0  0  0
  7  8  2  0  0  0
  7  9  1  0  0  0
  8 43  1  0  0  0
  9 10  1  0  0  0
  9 14  2  0  0  0
 10 11  2  0  0  0
 10 44  1  0  0  0
 11 12  1  0  0  0
 11 13  1  0  0  0
 13 45  1  0  0  0
 15 16  1  0  0  0
 15 46  1  0  0  0
 16 17  1  0  0  0
 16 19  1  0  0  0
 16 47  1  0  0  0
 17 18  2  0  0  0
 17 40  1  0  0  0
 19 20  1  0  0  0
 19 48  1  0  0  0
 19 49  1  0  0  0
 20 21  2  0  0  0
 20 22  1  0  0  0
 21 23  1  0  0  0
 21 50  1  0  0  0
 22 24  2  0  0  0
 22 51  1  0  0  0
 23 25  2  0  0  0
 23 52  1  0  0  0
 24 25  1  0  0  0
 24 53  1  0  0  0
 25 54  1  0  0  0
 26 27  2  0  0  0
 26 31  1  0  0  0
 26 55  1  0  0  0
 27 28  1  0  0  0
 27 56  1  0  0  0
 28 29  2  0  0  0
 28 32  1  0  0  0
 29 30  1  0  0  0
 29 57  1  0  0  0
 30 31  2  0  0  0
 30 38  1  0  0  0
 31 33  1  0  0  0
 33 34  1  0  0  0
 33 37  1  0  0  0
 34 35  2  0  0  0
 34 58  1  0  0  0
 35 36  1  0  0  0
 36 37  2  0  0  0
 38 39  1  0  0  0
 38 59  1  0  0  0
 38 60  1  0  0  0
 39 40  1  0  0  0
 39 61  1  0  0  0
 39 62  1  0  0  0
 40 63  1  0  0  0
M  CHG  1  12  -1
M  END
> <s_m_source_file>
../5e2p_ligand.sdf

> <i_m_source_file_index>
1

> <s_epik_input>
Tz1jKFtuSF0xKVtjSF1jKFtPSF0pYyhjMTIpW2NIXWMoW2NIXVtjSF0yKUMoPU8pW05IXVtDQEBIXShbQ0gyXWMzW2NIXVtjSF1bY0hdW2NIXVtjSF0zKUMoPU8pW05IXVtDSDJdW0NIMl1jKFtjSF00KWMoW2NIXVtjSF1jNENsKS1uNVtjSF1ubm41

> <s_epik_cmdline>
J2VwaWtfYXBwJywgJy1pbWFlJywgJ2xpZ2FuZF9wcm8ubWFlJywgJy1vbWFlJywgJ2xpZ2FuZF9wcmVwLm1hZScsICctbXMnLCAnMScsICctcGgnLCAnNycsICctcGh0JywgJzAuNScsICctbnQn

> <r_lp_tautomer_probability>
1

> <r_epik_Ionization_Penalty>
  0.0096

> <r_epik_Ionization_Penalty_Charging>
  0.0096

> <r_epik_Ionization_Penalty_Neutral>
  0.0000

> <r_epik_State_Penalty>
 -0.0000

> <r_epik_Charging_Adjusted_Penalty>
0.00964797521729289

> <i_epik_Tot_Q>
-1

> <i_epik_Tot_abs_Q>
1

$$$$
