5e4w_ligand
                    3D
 Schrodinger Suite 2020-3.
164163  0  0  1  0            999 V2000
  -12.8140   54.7960  -29.6500 N   0  3  0  0  0  0
  -13.7310   53.8570  -29.0140 C   0  0  2  0  0  0
  -15.1780   54.3200  -29.1680 C   0  0  0  0  0  0
  -15.5600   54.8400  -30.2200 O   0  0  0  0  0  0
  -13.3890   53.6930  -27.5320 C   0  0  0  0  0  0
  -13.5740   52.2760  -27.0070 C   0  0  0  0  0  0
  -13.8050   52.2660  -25.5040 C   0  0  0  0  0  0
  -15.1270   52.9280  -25.1530 C   0  0  0  0  0  0
  -15.4230   52.8650  -23.6970 N   0  3  0  0  0  0
  -15.9780   54.1460  -28.1160 N   0  0  0  0  0  0
  -17.4000   54.4930  -28.1840 C   0  0  2  0  0  0
  -17.6890   55.9410  -27.8050 C   0  0  0  0  0  0
  -17.1040   56.5080  -26.8800 O   0  0  0  0  0  0
  -18.2360   53.5800  -27.2780 C   0  0  0  0  0  0
  -18.4250   52.1310  -27.7230 C   0  0  0  0  0  0
  -19.1830   51.3970  -26.6180 C   0  0  0  0  0  0
  -20.5040   50.8490  -26.9190 N   0  0  0  0  0  0
  -21.2430   50.2390  -25.9930 C   0  0  0  0  0  0
  -20.7700   50.1330  -24.7580 N   0  0  0  0  0  0
  -22.4390   49.7420  -26.2820 N   0  0  0  0  0  0
  -18.6300   56.5100  -28.5440 N   0  0  0  0  0  0
  -19.1330   57.8600  -28.3530 C   0  0  2  0  0  0
  -20.5840   57.8260  -27.8860 C   0  0  0  0  0  0
  -21.3070   56.8740  -28.1670 O   0  0  0  0  0  0
  -19.0010   58.6620  -29.6460 C   0  0  0  0  0  0
  -17.6920   58.5470  -30.1790 O   0  0  0  0  0  0
  -21.0240   58.8560  -27.1780 N   0  0  0  0  0  0
  -22.4000   58.8620  -26.6980 C   0  0  2  0  0  0
  -23.2490   59.7550  -27.5930 C   0  0  0  0  0  0
  -22.7390   60.6490  -28.2830 O   0  0  0  0  0  0
  -22.4980   59.3620  -25.2610 C   0  0  0  0  0  0
  -21.4300   58.8660  -24.3210 C   0  0  0  0  0  0
  -21.4670   59.7080  -23.0620 C   0  0  0  0  0  0
  -20.4650   59.2490  -22.0090 C   0  0  0  0  0  0
  -20.9380   59.4750  -20.6090 N   0  3  0  0  0  0
  -24.5510   59.4950  -27.5780 N   0  0  0  0  0  0
  -25.4760   60.2250  -28.4170 C   0  0  2  0  0  0
  -26.8780   60.2250  -27.8230 C   0  0  0  0  0  0
  -27.2990   59.2530  -27.1950 O   0  0  0  0  0  0
  -25.4770   59.6020  -29.8160 C   0  0  0  0  0  0
  -26.7070   59.8800  -30.6520 C   0  0  0  0  0  0
  -26.7270   58.9780  -31.8650 C   0  0  0  0  0  0
  -26.6450   57.5680  -31.4940 N   0  0  0  0  0  0
  -26.5870   56.5750  -32.3720 C   0  0  0  0  0  0
  -26.6020   56.8420  -33.6670 N   0  0  0  0  0  0
  -26.5160   55.3140  -31.9630 N   0  0  0  0  0  0
  -27.5930   61.3230  -28.0440 N   0  0  0  0  0  0
  -28.9580   61.4900  -27.5720 C   0  0  2  0  0  0
  -29.8720   60.4410  -28.2010 C   0  0  0  0  0  0
  -29.5840   59.9350  -29.2840 O   0  0  0  0  0  0
  -29.4500   62.9040  -27.8710 C   0  0  0  0  0  0
  -28.7860   63.9560  -26.9890 C   0  0  0  0  0  0
  -29.0800   65.3720  -27.4540 C   0  0  0  0  0  0
  -28.3260   66.3840  -26.6000 C   0  0  0  0  0  0
  -28.5050   67.7810  -27.0840 N   0  3  0  0  0  0
  -30.9760   60.1240  -27.5280 N   0  0  0  0  0  0
  -31.8120   58.9640  -27.8600 C   0  0  2  0  0  0
  -32.3630   58.9870  -29.3010 C   0  0  0  0  0  0
  -33.1090   58.0890  -29.7040 O   0  0  0  0  0  0
  -32.9680   58.8740  -26.8530 C   0  0  0  0  0  0
  -33.7540   57.5640  -26.8580 C   0  0  0  0  0  0
  -33.0880   56.5060  -25.9940 C   0  0  0  0  0  0
  -33.2630   56.7790  -24.5710 N   0  0  0  0  0  0
  -32.2840   56.7320  -23.6730 C   0  0  0  0  0  0
  -31.0510   56.4200  -24.0490 N   0  0  0  0  0  0
  -32.5380   56.9960  -22.3980 N   0  0  0  0  0  0
  -31.9920   60.0150  -30.0660 N   0  0  0  0  0  0
  -32.2980   60.1300  -31.4970 C   0  0  2  0  0  0
  -33.7870   60.3660  -31.7240 C   0  0  0  0  0  0
  -34.1830   60.9590  -32.7290 O   0  0  0  0  0  0
  -31.8460   58.8850  -32.3140 C   0  0  2  0  0  0
  -32.6250   57.7400  -31.9430 O   0  0  0  0  0  0
  -30.3680   58.5910  -32.0920 C   0  0  0  0  0  0
  -34.6180   59.9670  -30.9060 O   0  0  0  0  0  0
  -13.0754   54.9006  -30.7134 H   0  0  0  0  0  0
  -11.7841   54.4201  -29.5609 H   0  0  0  0  0  0
  -12.8909   55.7755  -29.1554 H   0  0  0  0  0  0
  -13.5865   52.9051  -29.5461 H   0  0  0  0  0  0
  -12.3363   53.9657  -27.3663 H   0  0  0  0  0  0
  -14.0366   54.3488  -26.9315 H   0  0  0  0  0  0
  -14.4441   51.8143  -27.4966 H   0  0  0  0  0  0
  -12.6733   51.6835  -27.2253 H   0  0  0  0  0  0
  -13.8234   51.2272  -25.1428 H   0  0  0  0  0  0
  -12.9922   52.8136  -25.0044 H   0  0  0  0  0  0
  -15.0963   53.9873  -25.4480 H   0  0  0  0  0  0
  -15.9440   52.4219  -25.6881 H   0  0  0  0  0  0
  -16.3867   53.3562  -23.4972 H   0  0  0  0  0  0
  -14.6268   53.3788  -23.1384 H   0  0  0  0  0  0
  -15.4744   51.8134  -23.3785 H   0  0  0  0  0  0
  -15.5559   53.7352  -27.1870 H   0  0  0  0  0  0
  -17.6337   54.3451  -29.2487 H   0  0  0  0  0  0
  -17.7679   53.5214  -26.2843 H   0  0  0  0  0  0
  -19.2520   53.9904  -27.1811 H   0  0  0  0  0  0
  -19.0001   52.1074  -28.6604 H   0  0  0  0  0  0
  -17.4414   51.6657  -27.8845 H   0  0  0  0  0  0
  -18.5925   50.5326  -26.2802 H   0  0  0  0  0  0
  -19.3502   52.0799  -25.7720 H   0  0  0  0  0  0
  -20.9161   50.9338  -27.9354 H   0  0  0  0  0  0
  -19.7794   50.5427  -24.5114 H   0  0  0  0  0  0
  -22.8374   49.8263  -27.3039 H   0  0  0  0  0  0
  -23.0320   49.2457  -25.4997 H   0  0  0  0  0  0
  -19.0345   55.8814  -29.3510 H   0  0  0  0  0  0
  -18.5044   58.3084  -27.5695 H   0  0  0  0  0  0
  -19.7200   58.2833  -30.3874 H   0  0  0  0  0  0
  -19.2088   59.7228  -29.4423 H   0  0  0  0  0  0
  -17.4306   59.0670  -31.1124 H   0  0  0  0  0  0
  -20.3589   59.7025  -26.9519 H   0  0  0  0  0  0
  -22.7247   57.8121  -26.7449 H   0  0  0  0  0  0
  -22.4323   60.4600  -25.2495 H   0  0  0  0  0  0
  -23.4591   59.0477  -24.8281 H   0  0  0  0  0  0
  -21.6210   57.8116  -24.0726 H   0  0  0  0  0  0
  -20.4458   58.9565  -24.8038 H   0  0  0  0  0  0
  -21.2329   60.7531  -23.3129 H   0  0  0  0  0  0
  -22.4703   59.6543  -22.6143 H   0  0  0  0  0  0
  -20.2772   58.1716  -22.1266 H   0  0  0  0  0  0
  -19.5221   59.8014  -22.1346 H   0  0  0  0  0  0
  -20.1720   59.1236  -19.9020 H   0  0  0  0  0  0
  -21.8725   58.9189  -20.4435 H   0  0  0  0  0  0
  -21.1175   60.5488  -20.4515 H   0  0  0  0  0  0
  -24.9217   58.7048  -26.9085 H   0  0  0  0  0  0
  -25.1097   61.2619  -28.4431 H   0  0  0  0  0  0
  -24.6196   59.9853  -30.3887 H   0  0  0  0  0  0
  -25.4010   58.5080  -29.7303 H   0  0  0  0  0  0
  -27.6089   59.6948  -30.0501 H   0  0  0  0  0  0
  -26.6960   60.9290  -30.9829 H   0  0  0  0  0  0
  -27.6621   59.1344  -32.4228 H   0  0  0  0  0  0
  -25.8699   59.2150  -32.5124 H   0  0  0  0  0  0
  -26.6284   57.2785  -30.4329 H   0  0  0  0  0  0
  -26.6607   57.8845  -34.0130 H   0  0  0  0  0  0
  -26.5031   55.0846  -30.8873 H   0  0  0  0  0  0
  -26.4701   54.4986  -32.6998 H   0  0  0  0  0  0
  -27.1055   62.1282  -28.6133 H   0  0  0  0  0  0
  -28.9261   61.3360  -26.4833 H   0  0  0  0  0  0
  -29.2297   63.1549  -28.9191 H   0  0  0  0  0  0
  -30.5355   62.9581  -27.7014 H   0  0  0  0  0  0
  -29.1536   63.8545  -25.9572 H   0  0  0  0  0  0
  -27.6955   63.8130  -27.0054 H   0  0  0  0  0  0
  -28.7665   65.4862  -28.5022 H   0  0  0  0  0  0
  -30.1590   65.5688  -27.3705 H   0  0  0  0  0  0
  -28.6918   66.3342  -25.5638 H   0  0  0  0  0  0
  -27.2508   66.1526  -26.6208 H   0  0  0  0  0  0
  -27.9425   68.4687  -26.4354 H   0  0  0  0  0  0
  -29.5728   68.0439  -27.0585 H   0  0  0  0  0  0
  -28.1319   67.8623  -28.1156 H   0  0  0  0  0  0
  -31.2521   60.7786  -26.6882 H   0  0  0  0  0  0
  -31.1283   58.1060  -27.7799 H   0  0  0  0  0  0
  -32.5753   58.9927  -25.8324 H   0  0  0  0  0  0
  -33.6976   59.6708  -27.0601 H   0  0  0  0  0  0
  -34.7668   57.7426  -26.4677 H   0  0  0  0  0  0
  -33.8200   57.1799  -27.8866 H   0  0  0  0  0  0
  -33.5290   55.5225  -26.2136 H   0  0  0  0  0  0
  -32.0098   56.4811  -26.2107 H   0  0  0  0  0  0
  -34.2563   57.0443  -24.1800 H   0  0  0  0  0  0
  -30.8371   56.2006  -25.1054 H   0  0  0  0  0  0
  -33.5596   57.2551  -22.0829 H   0  0  0  0  0  0
  -31.7271   56.9558  -21.6559 H   0  0  0  0  0  0
  -31.4225   60.8084  -29.5599 H   0  0  0  0  0  0
  -31.7218   61.0160  -31.8020 H   0  0  0  0  0  0
  -32.0341   59.0327  -33.3877 H   0  0  0  0  0  0
  -33.7208   57.7667  -32.0358 H   0  0  0  0  0  0
  -29.7723   59.4707  -32.3772 H   0  0  0  0  0  0
  -30.0689   57.7301  -32.7080 H   0  0  0  0  0  0
  -30.1956   58.3599  -31.0305 H   0  0  0  0  0  0
  -35.6898   60.1430  -31.0803 H   0  0  0  0  0  0
  1  2  1  0  0  0
  1 75  1  0  0  0
  1 76  1  0  0  0
  1 77  1  0  0  0
  2  3  1  0  0  0
  2  5  1  0  0  0
  2 78  1  0  0  0
  3  4  2  0  0  0
  3 10  1  0  0  0
  5  6  1  0  0  0
  5 79  1  0  0  0
  5 80  1  0  0  0
  6  7  1  0  0  0
  6 81  1  0  0  0
  6 82  1  0  0  0
  7  8  1  0  0  0
  7 83  1  0  0  0
  7 84  1  0  0  0
  8  9  1  0  0  0
  8 85  1  0  0  0
  8 86  1  0  0  0
  9 87  1  0  0  0
  9 88  1  0  0  0
  9 89  1  0  0  0
 10 11  1  0  0  0
 10 90  1  0  0  0
 11 12  1  0  0  0
 11 14  1  0  0  0
 11 91  1  0  0  0
 12 13  2  0  0  0
 12 21  1  0  0  0
 14 15  1  0  0  0
 14 92  1  0  0  0
 14 93  1  0  0  0
 15 16  1  0  0  0
 15 94  1  0  0  0
 15 95  1  0  0  0
 16 17  1  0  0  0
 16 96  1  0  0  0
 16 97  1  0  0  0
 17 18  1  0  0  0
 17 98  1  0  0  0
 18 19  2  0  0  0
 18 20  1  0  0  0
 19 99  1  0  0  0
 20100  1  0  0  0
 20101  1  0  0  0
 21 22  1  0  0  0
 21102  1  0  0  0
 22 23  1  0  0  0
 22 25  1  0  0  0
 22103  1  0  0  0
 23 24  2  0  0  0
 23 27  1  0  0  0
 25 26  1  0  0  0
 25104  1  0  0  0
 25105  1  0  0  0
 26106  1  0  0  0
 27 28  1  0  0  0
 27107  1  0  0  0
 28 29  1  0  0  0
 28 31  1  0  0  0
 28108  1  0  0  0
 29 30  2  0  0  0
 29 36  1  0  0  0
 31 32  1  0  0  0
 31109  1  0  0  0
 31110  1  0  0  0
 32 33  1  0  0  0
 32111  1  0  0  0
 32112  1  0  0  0
 33 34  1  0  0  0
 33113  1  0  0  0
 33114  1  0  0  0
 34 35  1  0  0  0
 34115  1  0  0  0
 34116  1  0  0  0
 35117  1  0  0  0
 35118  1  0  0  0
 35119  1  0  0  0
 36 37  1  0  0  0
 36120  1  0  0  0
 37 38  1  0  0  0
 37 40  1  0  0  0
 37121  1  0  0  0
 38 39  2  0  0  0
 38 47  1  0  0  0
 40 41  1  0  0  0
 40122  1  0  0  0
 40123  1  0  0  0
 41 42  1  0  0  0
 41124  1  0  0  0
 41125  1  0  0  0
 42 43  1  0  0  0
 42126  1  0  0  0
 42127  1  0  0  0
 43 44  1  0  0  0
 43128  1  0  0  0
 44 45  2  0  0  0
 44 46  1  0  0  0
 45129  1  0  0  0
 46130  1  0  0  0
 46131  1  0  0  0
 47 48  1  0  0  0
 47132  1  0  0  0
 48 49  1  0  0  0
 48 51  1  0  0  0
 48133  1  0  0  0
 49 50  2  0  0  0
 49 56  1  0  0  0
 51 52  1  0  0  0
 51134  1  0  0  0
 51135  1  0  0  0
 52 53  1  0  0  0
 52136  1  0  0  0
 52137  1  0  0  0
 53 54  1  0  0  0
 53138  1  0  0  0
 53139  1  0  0  0
 54 55  1  0  0  0
 54140  1  0  0  0
 54141  1  0  0  0
 55142  1  0  0  0
 55143  1  0  0  0
 55144  1  0  0  0
 56 57  1  0  0  0
 56145  1  0  0  0
 57 58  1  0  0  0
 57 60  1  0  0  0
 57146  1  0  0  0
 58 59  2  0  0  0
 58 67  1  0  0  0
 60 61  1  0  0  0
 60147  1  0  0  0
 60148  1  0  0  0
 61 62  1  0  0  0
 61149  1  0  0  0
 61150  1  0  0  0
 62 63  1  0  0  0
 62151  1  0  0  0
 62152  1  0  0  0
 63 64  1  0  0  0
 63153  1  0  0  0
 64 65  2  0  0  0
 64 66  1  0  0  0
 65154  1  0  0  0
 66155  1  0  0  0
 66156  1  0  0  0
 67 68  1  0  0  0
 67157  1  0  0  0
 68 69  1  0  0  0
 68 71  1  0  0  0
 68158  1  0  0  0
 69 70  2  0  0  0
 69 74  1  0  0  0
 71 72  1  0  0  0
 71 73  1  0  0  0
 71159  1  0  0  0
 72160  1  0  0  0
 73161  1  0  0  0
 73162  1  0  0  0
 73163  1  0  0  0
 74164  1  0  0  0
M  CHG  4   1   1   9   1  35   1  55   1
M  END
> <s_m_source_file>
../5e4w_ligand.sdf

> <i_m_source_file_index>
1

> <s_epik_input>
W05IMytdW0NIMl1bQ0gyXVtDSDJdW0NIMl1bQ0BIXShbTkgzK10pQyg9TylbTkhdW0NAQEhdKFtDSDJdW0NIMl1bQ0gyXVtOSF0vQyg9TlxbSF0pW05IMl0pQyg9TylbTkhdW0NAQEhdKFtDSDJdW09IXSlDKD1PKVtOSF1bQ0BASF0oW0NIMl1bQ0gyXVtDSDJdW0NIMl1bTkgzK10pQyg9TylbTkhdW0NAQEhdKFtDSDJdW0NIMl1bQ0gyXVtOSF0vQyg9TlxbSF0pW05IMl0pQyg9TylbTkhdW0NAQEhdKFtDSDJdW0NIMl1bQ0gyXVtDSDJdW05IMytdKUMoPU8pW05IXVtDQEhdKEMoPU8pW05IXVtDQEhdKEMoPU8pW09IXSlbQ0BIXShbT0hdKVtDSDNdKVtDSDJdW0NIMl1bQ0gyXVtOSF0vQyg9TlxbSF0pW05IMl0=

> <s_epik_cmdline>
J2VwaWtfYXBwJywgJy1pbWFlJywgJ2xpZ2FuZF9wcm8ubWFlJywgJy1vbWFlJywgJ2xpZ2FuZF9wcmVwLm1hZScsICctbXMnLCAnMScsICctcGgnLCAnNycsICctcGh0JywgJzAuNScsICctbnQn

> <s_epik_pKa_notes>
Molecule size exceeds maximum supported for generating protonation states

> <s_epik_Chemistry_Notes>
This compound has an imine and may undergo hydrolysis.

$$$$
