5e8r_ligand
                    3D
 Schrodinger Suite 2020-3.
 47 48  0  0  1  0            999 V2000
  -31.8310   16.0280   -8.3520 C   0  0  0  0  0  0
  -32.2750   17.1250   -7.6390 C   0  0  0  0  0  0
  -29.5620   16.6170   -7.8300 C   0  0  0  0  0  0
  -31.1830   18.0950   -2.7350 N   0  0  1  0  0  0
  -30.0140   17.7160   -7.1220 C   0  0  0  0  0  0
  -31.3770   17.9730   -6.9990 C   0  0  0  0  0  0
  -28.2150   16.9100   -0.7180 N   0  3  0  0  0  0
  -31.8680   19.0930   -6.1590 C   0  0  0  0  0  0
  -32.8170   20.0040   -6.5700 C   0  0  0  0  0  0
  -32.2790   20.5260   -4.4640 C   0  0  0  0  0  0
  -31.5020   19.4320   -4.7700 C   0  0  0  0  0  0
  -30.5110   18.7670   -3.8520 C   0  0  0  0  0  0
  -31.9930   16.9480   -3.1970 C   0  0  0  0  0  0
  -30.3800   17.8030   -1.5340 C   0  0  0  0  0  0
  -29.1290   17.0020   -1.8510 C   0  0  0  0  0  0
  -33.0550   20.8620   -5.5360 N   0  3  0  0  0  0
  -30.4740   15.7700   -8.4460 C   0  0  0  0  0  0
  -30.1750   14.6400   -9.1770 O   0  0  0  0  0  0
  -28.9680   14.5970  -10.0010 C   0  0  0  0  0  0
  -29.0640   15.6610  -11.0520 C   0  0  0  0  0  0
  -28.8590   13.2080  -10.5660 C   0  0  0  0  0  0
  -32.5476   15.3670   -8.8395 H   0  0  0  0  0  0
  -33.3440   17.3289   -7.5771 H   0  0  0  0  0  0
  -28.4932   16.4164   -7.9042 H   0  0  0  0  0  0
  -29.2948   18.3888   -6.6549 H   0  0  0  0  0  0
  -27.3318   16.3212   -1.0063 H   0  0  0  0  0  0
  -28.7239   16.4191    0.1247 H   0  0  0  0  0  0
  -27.9001   17.9204   -0.4179 H   0  0  0  0  0  0
  -33.2347   19.9427   -7.5858 H   0  0  0  0  0  0
  -32.2090   20.9892   -3.4688 H   0  0  0  0  0  0
  -29.8282   19.5353   -3.4603 H   0  0  0  0  0  0
  -29.9382   18.0291   -4.4328 H   0  0  0  0  0  0
  -32.5626   17.2383   -4.0922 H   0  0  0  0  0  0
  -32.6896   16.6467   -2.4008 H   0  0  0  0  0  0
  -31.3295   16.1055   -3.4418 H   0  0  0  0  0  0
  -30.0674   18.7469   -1.0635 H   0  0  0  0  0  0
  -30.9834   17.2207   -0.8221 H   0  0  0  0  0  0
  -28.6201   17.4929   -2.6937 H   0  0  0  0  0  0
  -29.4439   15.9917   -2.1511 H   0  0  0  0  0  0
  -28.0686   14.8094   -9.4044 H   0  0  0  0  0  0
  -29.1407   16.6467  -10.5699 H   0  0  0  0  0  0
  -29.9560   15.4853  -11.6712 H   0  0  0  0  0  0
  -28.1658   15.6319  -11.6863 H   0  0  0  0  0  0
  -28.7926   12.4815   -9.7427 H   0  0  0  0  0  0
  -27.9572   13.1365  -11.1918 H   0  0  0  0  0  0
  -29.7475   12.9899  -11.1768 H   0  0  0  0  0  0
  -33.7872   21.6746   -5.6530 H   0  0  0  0  0  0
  1  2  2  0  0  0
  1 17  1  0  0  0
  1 22  1  0  0  0
  2  6  1  0  0  0
  2 23  1  0  0  0
  3  5  1  0  0  0
  3 17  2  0  0  0
  3 24  1  0  0  0
  4 12  1  0  0  0
  4 13  1  0  0  0
  4 14  1  0  0  0
  5  6  2  0  0  0
  5 25  1  0  0  0
  6  8  1  0  0  0
  7 15  1  0  0  0
  7 26  1  0  0  0
  7 27  1  0  0  0
  7 28  1  0  0  0
  8  9  2  0  0  0
  8 11  1  0  0  0
  9 16  1  0  0  0
  9 29  1  0  0  0
 10 11  2  0  0  0
 10 16  1  0  0  0
 10 30  1  0  0  0
 11 12  1  0  0  0
 12 31  1  0  0  0
 12 32  1  0  0  0
 13 33  1  0  0  0
 13 34  1  0  0  0
 13 35  1  0  0  0
 14 15  1  0  0  0
 14 36  1  0  0  0
 14 37  1  0  0  0
 15 38  1  0  0  0
 15 39  1  0  0  0
 16 47  1  0  0  0
 17 18  1  0  0  0
 18 19  1  0  0  0
 19 20  1  0  0  0
 19 21  1  0  0  0
 19 40  1  0  0  0
 20 41  1  0  0  0
 20 42  1  0  0  0
 20 43  1  0  0  0
 21 44  1  0  0  0
 21 45  1  0  0  0
 21 46  1  0  0  0
M  CHG  2   7   1  16   1
M  END
> <s_m_source_file>
../5e8r_ligand.sdf

> <i_m_source_file_index>
1

> <s_epik_input>
W0NIM11bQ0hdKFtDSDNdKU9jKFtjSF1bY0hdMSlbY0hdW2NIXWMxLWMyW2NIXVtuSF1bY0hdYzJbQ0gyXVtOQEBIK10oW0NIM10pW0NIMl1bQ0gyXVtOSDMrXQ==

> <s_epik_cmdline>
J2VwaWtfYXBwJywgJy1pbWFlJywgJ2xpZ2FuZF9wcm8ubWFlJywgJy1vbWFlJywgJ2xpZ2FuZF9wcmVwLm1hZScsICctbXMnLCAnMScsICctcGgnLCAnNycsICctcGh0JywgJzAuNScsICctbnQn

> <r_lp_tautomer_probability>
1

> <r_epik_Ionization_Penalty>
  0.0043

> <r_epik_Ionization_Penalty_Charging>
  0.0030

> <r_epik_Ionization_Penalty_Neutral>
  0.0012

> <r_epik_State_Penalty>
 -0.0000

> <r_epik_Charging_Adjusted_Penalty>
0.00303407298118135

> <i_epik_Tot_Q>
2

> <i_epik_Tot_abs_Q>
2

$$$$
