5ea3_ligand
                    3D
 Schrodinger Suite 2020-3.
 63 66  0  0  1  0            999 V2000
   23.7380   16.9200   23.8690 C   0  0  0  0  0  0
   16.0940   21.3660   22.0180 C   0  0  0  0  0  0
   18.4620   22.2800   22.0340 C   0  0  0  0  0  0
   24.4820   22.6560   22.9280 C   0  0  0  0  0  0
   24.4060   22.7950   24.4370 C   0  0  0  0  0  0
   23.0650   24.5960   22.6560 C   0  0  0  0  0  0
   25.7900   25.6650   25.9680 C   0  0  0  0  0  0
   15.5060   19.2440   20.5270 C   0  0  0  0  0  0
   22.7430   17.2390   22.7210 C   0  0  3  0  0  0
   22.1900   16.1330   21.8450 C   0  0  0  0  0  0
   21.2370   16.4610   20.7480 C   0  0  0  0  0  0
   20.8370   17.8940   20.5200 C   0  0  0  0  0  0
   22.3190   18.7230   22.4710 C   0  0  0  0  0  0
   21.4260   19.0310   21.4390 C   0  0  0  0  0  0
   21.2240   20.3960   21.4510 N   0  0  0  0  0  0
   21.9980   20.9470   22.4860 C   0  0  0  0  0  0
   22.6700   19.9020   23.1110 N   0  3  0  0  0  0
   20.3670   21.1200   20.5300 C   0  0  0  0  0  0
   18.8930   21.1840   21.0420 C   0  0  0  0  0  0
   17.9210   20.2170   20.5650 N   0  0  0  0  0  0
   16.5260   20.2740   21.0310 C   0  0  0  0  0  0
   17.0700   22.3470   22.4980 C   0  0  0  0  0  0
   22.0880   22.3670   22.8470 N   0  0  0  0  0  0
   23.2430   23.1760   22.3240 C   0  0  2  0  0  0
   24.2650   24.1830   24.8640 N   0  0  2  0  0  0
   23.1820   24.8970   24.1370 C   0  0  0  0  0  0
   25.4670   24.8550   24.6920 C   0  0  0  0  0  0
   25.7140   24.8170   27.1340 N   0  3  0  0  0  0
   19.3910   23.2160   22.4840 O   0  0  0  0  0  0
   23.9243   15.8364   23.9022 H   0  0  0  0  0  0
   23.3093   17.2479   24.8275 H   0  0  0  0  0  0
   24.6855   17.4496   23.6907 H   0  0  0  0  0  0
   15.0608   21.4119   22.3621 H   0  0  0  0  0  0
   25.3423   23.2278   22.5500 H   0  0  0  0  0  0
   24.6019   21.5951   22.6631 H   0  0  0  0  0  0
   23.5373   22.2351   24.8135 H   0  0  0  0  0  0
   25.3249   22.3934   24.8890 H   0  0  0  0  0  0
   23.8320   25.1921   22.1400 H   0  0  0  0  0  0
   22.0662   24.9255   22.3337 H   0  0  0  0  0  0
   26.8060   26.0796   25.8917 H   0  0  0  0  0  0
   25.0659   26.4863   26.0741 H   0  0  0  0  0  0
   14.5253   19.4461   20.9823 H   0  0  0  0  0  0
   15.8380   18.2328   20.8051 H   0  0  0  0  0  0
   15.4237   19.3148   19.4324 H   0  0  0  0  0  0
   23.5860   17.3678   22.0262 H   0  0  0  0  0  0
   22.4912   15.0893   22.0181 H   0  0  0  0  0  0
   20.8321   15.6592   20.1131 H   0  0  0  0  0  0
   21.1252   18.1977   19.5028 H   0  0  0  0  0  0
   19.7479   17.9939   20.6377 H   0  0  0  0  0  0
   20.7387   22.1489   20.4152 H   0  0  0  0  0  0
   20.3722   20.6170   19.5518 H   0  0  0  0  0  0
   16.7641   23.1248   23.1977 H   0  0  0  0  0  0
   21.3299   22.8410   23.4878 H   0  0  0  0  0  0
   23.3136   23.1077   21.2284 H   0  0  0  0  0  0
   23.3755   25.9705   24.2788 H   0  0  0  0  0  0
   22.2437   24.6237   24.6420 H   0  0  0  0  0  0
   25.3858   25.5389   23.8343 H   0  0  0  0  0  0
   26.2710   24.1276   24.5061 H   0  0  0  0  0  0
   25.9462   25.4075   28.0326 H   0  0  0  0  0  0
   26.4390   23.9954   27.0377 H   0  0  0  0  0  0
   24.6989   24.4021   27.2200 H   0  0  0  0  0  0
   20.4337   23.1667   22.1371 H   0  0  0  0  0  0
   23.3716   19.8803   23.9579 H   0  0  0  0  0  0
  1  9  1  0  0  0
  1 30  1  0  0  0
  1 31  1  0  0  0
  1 32  1  0  0  0
  2 21  2  0  0  0
  2 22  1  0  0  0
  2 33  1  0  0  0
  3 19  1  0  0  0
  3 22  2  0  0  0
  3 29  1  0  0  0
  4  5  1  0  0  0
  4 24  1  0  0  0
  4 34  1  0  0  0
  4 35  1  0  0  0
  5 25  1  0  0  0
  5 36  1  0  0  0
  5 37  1  0  0  0
  6 24  1  0  0  0
  6 26  1  0  0  0
  6 38  1  0  0  0
  6 39  1  0  0  0
  7 27  1  0  0  0
  7 28  1  0  0  0
  7 40  1  0  0  0
  7 41  1  0  0  0
  8 21  1  0  0  0
  8 42  1  0  0  0
  8 43  1  0  0  0
  8 44  1  0  0  0
  9 10  1  0  0  0
  9 13  1  0  0  0
  9 45  1  0  0  0
 10 11  2  0  0  0
 10 46  1  0  0  0
 11 12  1  0  0  0
 11 47  1  0  0  0
 12 14  1  0  0  0
 12 48  1  0  0  0
 12 49  1  0  0  0
 13 14  2  0  0  0
 13 17  1  0  0  0
 14 15  1  0  0  0
 15 16  1  0  0  0
 15 18  1  0  0  0
 16 17  2  0  0  0
 16 23  1  0  0  0
 17 63  1  0  0  0
 18 19  1  0  0  0
 18 50  1  0  0  0
 18 51  1  0  0  0
 19 20  2  0  0  0
 20 21  1  0  0  0
 22 52  1  0  0  0
 23 24  1  0  0  0
 23 53  1  0  0  0
 24 54  1  0  0  0
 25 26  1  0  0  0
 25 27  1  0  0  0
 26 55  1  0  0  0
 26 56  1  0  0  0
 27 57  1  0  0  0
 27 58  1  0  0  0
 28 59  1  0  0  0
 28 60  1  0  0  0
 28 61  1  0  0  0
 29 62  1  0  0  0
M  CHG  2  17   1  28   1
M  END
> <s_m_source_file>
../5ea3_ligand.sdf

> <i_m_source_file_index>
1

> <s_epik_input>
W0NIM11bQ0hdMVtDSF09W0NIXVtDSDJdYyhjMTIpbihbQ0gyXWMoYzNbT0hdKW5jKFtDSDNdKVtjSF1bY0hdMyljKG4yKVtOSF1bQ0BASF00W0NIMl1bQ0gyXVtOQEgrXShbQ0gyXVtDSDJdNClbQ0gyXVtDSDJdW05IMytd

> <s_epik_cmdline>
J2VwaWtfYXBwJywgJy1pbWFlJywgJ2xpZ2FuZF9wcm8ubWFlJywgJy1vbWFlJywgJ2xpZ2FuZF9wcmVwLm1hZScsICctbXMnLCAnMScsICctcGgnLCAnNycsICctcGh0JywgJzAuNScsICctbnQn

> <r_lp_tautomer_probability>
1

> <r_epik_Ionization_Penalty>
  0.1644

> <r_epik_Ionization_Penalty_Charging>
  0.0021

> <r_epik_Ionization_Penalty_Neutral>
  0.1623

> <r_epik_State_Penalty>
 -0.0000

> <r_epik_Charging_Adjusted_Penalty>
0.00211207709027382

> <i_epik_Tot_Q>
2

> <i_epik_Tot_abs_Q>
2

$$$$
