5ea4_ligand
                    3D
 Schrodinger Suite 2020-3.
 60 64  0  0  1  0            999 V2000
   19.9050   19.7670   18.3790 C   0  0  0  0  0  0
   19.2820   14.7200   18.1510 C   0  0  0  0  0  0
   17.9550   14.5420   17.4270 C   0  0  0  0  0  0
   20.7350   15.4860   20.9640 C   0  0  0  0  0  0
   21.1150   18.4290   21.1530 C   0  0  0  0  0  0
   16.2070   18.2800   19.1480 C   0  0  0  0  0  0
   15.5270   22.1100   22.2840 C   0  0  0  0  0  0
   19.4050   17.3020   17.8730 C   0  0  0  0  0  0
   19.9210   18.3670   18.7000 N   0  0  0  0  0  0
   19.6230   16.0550   18.5760 N   0  0  0  0  0  0
   19.0010   20.4270   19.4210 C   0  0  0  0  0  0
   19.3960   21.2270   20.4610 N   0  0  0  0  0  0
   20.4490   17.7900   19.9170 C   0  0  0  0  0  0
   20.2660   16.3640   19.8400 C   0  0  0  0  0  0
   17.6260   20.2920   19.4630 N   0  0  0  0  0  0
   18.2810   21.5990   21.1500 C   0  0  0  0  0  0
   17.1770   21.0130   20.5290 C   0  0  0  0  0  0
   14.2720   16.3750   18.9290 S   0  0  0  0  0  0
   19.2670   14.4210   16.6590 C   0  0  0  0  0  0
   18.0860   22.5010   22.4110 C   0  0  0  0  0  0
   18.8840   17.4580   16.7790 O   0  0  0  0  0  0
   15.7250   21.2500   21.0690 C   0  0  0  0  0  0
   13.7130   16.6980   20.2200 O   0  0  0  0  0  0
   15.2300   15.3490   19.2600 O   0  0  0  0  0  0
   21.5780   17.5740   22.2640 N   0  3  0  0  0  0
   16.7040   22.7280   22.9440 C   0  0  0  0  0  0
   16.8300   19.5340   18.5190 C   0  0  0  0  0  0
   15.0770   17.8010   18.2110 C   0  0  0  0  0  0
   13.0180   15.7880   17.7960 C   0  0  0  0  0  0
   16.4710   23.8240   24.4900 Br  0  0  0  0  0  0
   21.3950   16.1070   22.1900 C   0  0  0  0  0  0
   20.9286   20.1666   18.4302 H   0  0  0  0  0  0
   19.5076   19.9057   17.3627 H   0  0  0  0  0  0
   19.7771   14.2956   19.0369 H   0  0  0  0  0  0
   17.4036   13.7014   17.8735 H   0  0  0  0  0  0
   17.3597   15.4622   17.5210 H   0  0  0  0  0  0
   19.8803   14.9288   21.3751 H   0  0  0  0  0  0
   21.4872   14.7776   20.5866 H   0  0  0  0  0  0
   22.0181   18.9745   20.8419 H   0  0  0  0  0  0
   20.4108   19.1271   21.6292 H   0  0  0  0  0  0
   16.9764   17.5006   19.2510 H   0  0  0  0  0  0
   15.8029   18.5296   20.1402 H   0  0  0  0  0  0
   14.5175   22.2832   22.6852 H   0  0  0  0  0  0
   19.7598   15.2408   16.1158 H   0  0  0  0  0  0
   19.8037   13.4800   16.4682 H   0  0  0  0  0  0
   18.6379   22.0697   23.2592 H   0  0  0  0  0  0
   18.4668   23.5115   22.2015 H   0  0  0  0  0  0
   15.3384   20.2396   21.2680 H   0  0  0  0  0  0
   15.1841   21.6884   20.2174 H   0  0  0  0  0  0
   22.6623   17.7018   22.3977 H   0  0  0  0  0  0
   21.0580   17.8620   23.1896 H   0  0  0  0  0  0
   17.4838   19.2396   17.6848 H   0  0  0  0  0  0
   16.0317   20.1917   18.1447 H   0  0  0  0  0  0
   14.3425   18.6092   18.0794 H   0  0  0  0  0  0
   15.5018   17.5289   17.2335 H   0  0  0  0  0  0
   12.5157   14.9099   18.2279 H   0  0  0  0  0  0
   13.4880   15.5089   16.8414 H   0  0  0  0  0  0
   12.2793   16.5843   17.6221 H   0  0  0  0  0  0
   20.8045   15.8656   23.0861 H   0  0  0  0  0  0
   22.4126   15.7045   22.3021 H   0  0  0  0  0  0
  1  9  1  0  0  0
  1 11  1  0  0  0
  1 32  1  0  0  0
  1 33  1  0  0  0
  2  3  1  0  0  0
  2 10  1  0  0  0
  2 19  1  0  0  0
  2 34  1  0  0  0
  3 19  1  0  0  0
  3 35  1  0  0  0
  3 36  1  0  0  0
  4 14  1  0  0  0
  4 31  1  0  0  0
  4 37  1  0  0  0
  4 38  1  0  0  0
  5 13  1  0  0  0
  5 25  1  0  0  0
  5 39  1  0  0  0
  5 40  1  0  0  0
  6 27  1  0  0  0
  6 28  1  0  0  0
  6 41  1  0  0  0
  6 42  1  0  0  0
  7 22  1  0  0  0
  7 26  2  0  0  0
  7 43  1  0  0  0
  8  9  1  0  0  0
  8 10  1  0  0  0
  8 21  2  0  0  0
  9 13  1  0  0  0
 10 14  1  0  0  0
 11 12  2  0  0  0
 11 15  1  0  0  0
 12 16  1  0  0  0
 13 14  2  0  0  0
 15 17  1  0  0  0
 15 27  1  0  0  0
 16 17  2  0  0  0
 16 20  1  0  0  0
 17 22  1  0  0  0
 18 23  2  0  0  0
 18 24  2  0  0  0
 18 28  1  0  0  0
 18 29  1  0  0  0
 19 44  1  0  0  0
 19 45  1  0  0  0
 20 26  1  0  0  0
 20 46  1  0  0  0
 20 47  1  0  0  0
 22 48  1  0  0  0
 22 49  1  0  0  0
 25 31  1  0  0  0
 25 50  1  0  0  0
 25 51  1  0  0  0
 26 30  1  0  0  0
 27 52  1  0  0  0
 27 53  1  0  0  0
 28 54  1  0  0  0
 28 55  1  0  0  0
 29 56  1  0  0  0
 29 57  1  0  0  0
 29 58  1  0  0  0
 31 59  1  0  0  0
 31 60  1  0  0  0
M  CHG  1  25   1
M  END
> <s_m_source_file>
../5ea4_ligand.sdf

> <i_m_source_file_index>
1

> <s_epik_input>
W0NIMl0xQyhCcik9W0NIXVtDSDJdYyhjMTIpbihbQ0gyXVtDSDJdW0NIMl1TKD1PKSg9TylbQ0gzXSljKG4yKVtDSDJdbjNjKD1PKW4oW0NIXTRbQ0gyXVtDSDJdNCljKGMzNSlbQ0gyXVtDSDJdW05IMitdW0NIMl01

> <s_epik_cmdline>
J2VwaWtfYXBwJywgJy1pbWFlJywgJ2xpZ2FuZF9wcm8ubWFlJywgJy1vbWFlJywgJ2xpZ2FuZF9wcmVwLm1hZScsICctbXMnLCAnMScsICctcGgnLCAnNycsICctcGh0JywgJzAuNScsICctbnQn

> <r_lp_tautomer_probability>
1

> <r_epik_Ionization_Penalty>
  0.0616

> <r_epik_Ionization_Penalty_Charging>
  0.0616

> <r_epik_Ionization_Penalty_Neutral>
  0.0000

> <r_epik_State_Penalty>
  0.0499

> <r_epik_Charging_Adjusted_Penalty>
0.111554705959969

> <i_epik_Tot_Q>
1

> <i_epik_Tot_abs_Q>
1

$$$$
