5ea5_ligand
                    3D
 Schrodinger Suite 2020-3.
 99103  0  0  1  0            999 V2000
   26.3570   25.8860   27.5260 C   0  0  0  0  0  0
   25.0060   26.2120   26.9220 C   0  0  0  0  0  0
   24.9310   25.8530   25.5880 N   0  3  0  0  0  0
   25.9770   26.3880   24.8530 C   0  0  0  0  0  0
   27.3360   26.0810   25.4560 C   0  0  0  0  0  0
   27.4040   26.4300   26.7940 O   0  0  0  0  0  0
   24.9280   24.5990   25.4860 C   0  0  0  0  0  0
   23.8400   24.1580   24.4760 C   0  0  0  0  0  0
   24.4990   23.9250   23.0620 C   0  0  0  0  0  0
   23.6370   24.5260   22.0330 N   0  0  0  0  0  0
   23.2080   23.7000   20.9200 C   0  0  0  0  0  0
   23.6640   23.7710   19.6030 N   0  3  0  0  0  0
   22.9990   22.8040   18.8680 C   0  0  0  0  0  0
   22.1480   22.1570   19.7520 C   0  0  0  0  0  0
   22.2510   22.6900   21.0090 N   0  0  0  0  0  0
   21.2410   21.0130   19.2110 C   0  0  0  0  0  0
   21.2310   20.5210   17.8180 C   0  0  0  0  0  0
   22.1400   21.2030   16.8440 C   0  0  0  0  0  0
   23.0270   22.3380   17.3480 C   0  0  0  0  0  0
   21.5290   22.2680   22.1940 C   0  0  0  0  0  0
   19.9870   22.4430   22.1060 C   0  0  3  0  0  0
   19.2880   23.4340   23.0070 C   0  0  0  0  0  0
   17.8130   23.6050   22.9350 C   0  0  0  0  0  0
   17.0060   22.7950   21.9750 C   0  0  0  0  0  0
   17.7080   21.7900   21.0710 C   0  0  1  0  0  0
   19.1790   21.6370   21.1650 N   0  3  0  0  0  0
   20.0420   24.2120   23.9220 O   0  0  0  0  0  0
   16.8840   20.9290   20.0590 C   0  0  0  0  0  0
   20.2680   19.3640   17.5170 C   0  0  0  0  0  0
   19.5740   19.0060   18.7510 N   0  3  0  0  0  0
   20.1430   18.1450   19.7750 C   0  0  1  0  0  0
   20.8720   18.7160   20.9930 C   0  0  0  0  0  0
   21.5000   17.8390   22.0950 C   0  0  3  0  0  0
   21.3550   16.3140   21.9530 C   0  0  0  0  0  0
   20.6150   15.7180   20.7470 C   0  0  0  0  0  0
   20.0060   16.6000   19.6580 C   0  0  3  0  0  0
   22.2510   18.4790   23.3090 C   0  0  0  0  0  0
   19.2800   15.9780   18.4810 C   0  0  0  0  0  0
   20.1900   14.9590   17.8000 C   0  0  0  0  0  0
   19.9310   14.9860   16.2950 C   0  0  0  0  0  0
   19.2790   13.8150   15.9240 O   0  0  0  0  0  0
   26.4088   26.2897   28.5479 H   0  0  0  0  0  0
   26.4917   24.7947   27.5556 H   0  0  0  0  0  0
   24.2200   25.6689   27.4672 H   0  0  0  0  0  0
   24.8228   27.2941   26.9959 H   0  0  0  0  0  0
   23.9667   26.1635   25.1593 H   0  0  0  0  0  0
   25.9595   25.9728   23.8345 H   0  0  0  0  0  0
   25.8697   27.4817   24.8050 H   0  0  0  0  0  0
   27.5390   25.0031   25.3728 H   0  0  0  0  0  0
   28.1122   26.6430   24.9159 H   0  0  0  0  0  0
   25.9122   24.2575   25.1329 H   0  0  0  0  0  0
   24.7155   24.1517   26.4682 H   0  0  0  0  0  0
   23.3753   23.2232   24.8226 H   0  0  0  0  0  0
   23.0725   24.9421   24.3982 H   0  0  0  0  0  0
   25.4924   24.3967   23.0383 H   0  0  0  0  0  0
   24.6014   22.8452   22.8786 H   0  0  0  0  0  0
   23.3319   25.5794   22.1178 H   0  0  0  0  0  0
   20.5702   20.5634   19.9579 H   0  0  0  0  0  0
   22.8390   20.4680   16.4184 H   0  0  0  0  0  0
   21.5424   21.6510   16.0365 H   0  0  0  0  0  0
   22.7454   23.1816   16.7006 H   0  0  0  0  0  0
   24.0401   21.9980   17.0873 H   0  0  0  0  0  0
   21.7196   21.2005   22.3787 H   0  0  0  0  0  0
   21.8687   22.8562   23.0592 H   0  0  0  0  0  0
   19.8546   21.6588   22.8659 H   0  0  0  0  0  0
   17.3108   24.3312   23.5911 H   0  0  0  0  0  0
   16.2704   22.1943   22.5300 H   0  0  0  0  0  0
   16.4812   23.4664   21.2794 H   0  0  0  0  0  0
   17.8380   22.5693   20.3056 H   0  0  0  0  0  0
   19.5146   21.8298   20.1353 H   0  0  0  0  0  0
   19.3029   20.5689   21.3971 H   0  0  0  0  0  0
   21.1336   24.0893   23.9792 H   0  0  0  0  0  0
   15.8179   21.1876   20.1406 H   0  0  0  0  0  0
   17.0211   19.8620   20.2887 H   0  0  0  0  0  0
   17.2332   21.1317   19.0358 H   0  0  0  0  0  0
   19.5404   19.6813   16.7555 H   0  0  0  0  0  0
   20.8377   18.5007   17.1426 H   0  0  0  0  0  0
   19.3455   19.9186   19.3211 H   0  0  0  0  0  0
   18.6380   18.4823   18.5066 H   0  0  0  0  0  0
   21.0928   18.1139   19.2211 H   0  0  0  0  0  0
   21.7308   19.3163   20.6582 H   0  0  0  0  0  0
   20.1826   19.3514   21.5684 H   0  0  0  0  0  0
   20.5577   17.8759   22.6613 H   0  0  0  0  0  0
   22.3529   15.8538   21.9041 H   0  0  0  0  0  0
   20.8094   15.9151   22.8209 H   0  0  0  0  0  0
   21.2983   15.0660   20.1832 H   0  0  0  0  0  0
   19.7543   15.1303   21.0988 H   0  0  0  0  0  0
   20.9508   16.5588   19.0962 H   0  0  0  0  0  0
   22.2366   19.5747   23.2127 H   0  0  0  0  0  0
   23.2926   18.1258   23.3233 H   0  0  0  0  0  0
   21.7517   18.1865   24.2445 H   0  0  0  0  0  0
   18.3688   15.4748   18.8366 H   0  0  0  0  0  0
   19.0076   16.7640   17.7612 H   0  0  0  0  0  0
   21.2410   15.2150   17.9995 H   0  0  0  0  0  0
   19.9759   13.9548   18.1946 H   0  0  0  0  0  0
   19.3025   15.8539   16.0466 H   0  0  0  0  0  0
   20.8888   15.0617   15.7594 H   0  0  0  0  0  0
   19.0050   13.6477   14.8719 H   0  0  0  0  0  0
   24.4256   24.5140   19.3240 H   0  0  0  0  0  0
  1  2  1  0  0  0
  1  6  1  0  0  0
  1 42  1  0  0  0
  1 43  1  0  0  0
  2  3  1  0  0  0
  2 44  1  0  0  0
  2 45  1  0  0  0
  3  4  1  0  0  0
  3  7  1  0  0  0
  3 46  1  0  0  0
  4  5  1  0  0  0
  4 47  1  0  0  0
  4 48  1  0  0  0
  5  6  1  0  0  0
  5 49  1  0  0  0
  5 50  1  0  0  0
  7  8  1  0  0  0
  7 51  1  0  0  0
  7 52  1  0  0  0
  8  9  1  0  0  0
  8 53  1  0  0  0
  8 54  1  0  0  0
  9 10  1  0  0  0
  9 55  1  0  0  0
  9 56  1  0  0  0
 10 11  1  0  0  0
 10 57  1  0  0  0
 11 12  2  0  0  0
 11 15  1  0  0  0
 12 13  1  0  0  0
 12 99  1  0  0  0
 13 14  2  0  0  0
 13 19  1  0  0  0
 14 15  1  0  0  0
 14 16  1  0  0  0
 15 20  1  0  0  0
 16 17  2  0  0  0
 16 58  1  0  0  0
 17 18  1  0  0  0
 17 29  1  0  0  0
 18 19  1  0  0  0
 18 59  1  0  0  0
 18 60  1  0  0  0
 19 61  1  0  0  0
 19 62  1  0  0  0
 20 21  1  0  0  0
 20 63  1  0  0  0
 20 64  1  0  0  0
 21 22  1  0  0  0
 21 26  1  0  0  0
 21 65  1  0  0  0
 22 23  2  0  0  0
 22 27  1  0  0  0
 23 24  1  0  0  0
 23 66  1  0  0  0
 24 25  1  0  0  0
 24 67  1  0  0  0
 24 68  1  0  0  0
 25 26  1  0  0  0
 25 28  1  0  0  0
 25 69  1  0  0  0
 26 70  1  0  0  0
 26 71  1  0  0  0
 27 72  1  0  0  0
 28 73  1  0  0  0
 28 74  1  0  0  0
 28 75  1  0  0  0
 29 30  1  0  0  0
 29 76  1  0  0  0
 29 77  1  0  0  0
 30 31  1  0  0  0
 30 78  1  0  0  0
 30 79  1  0  0  0
 31 32  1  0  0  0
 31 36  1  0  0  0
 31 80  1  0  0  0
 32 33  1  0  0  0
 32 81  1  0  0  0
 32 82  1  0  0  0
 33 34  1  0  0  0
 33 37  1  0  0  0
 33 83  1  0  0  0
 34 35  1  0  0  0
 34 84  1  0  0  0
 34 85  1  0  0  0
 35 36  1  0  0  0
 35 86  1  0  0  0
 35 87  1  0  0  0
 36 38  1  0  0  0
 36 88  1  0  0  0
 37 89  1  0  0  0
 37 90  1  0  0  0
 37 91  1  0  0  0
 38 39  1  0  0  0
 38 92  1  0  0  0
 38 93  1  0  0  0
 39 40  1  0  0  0
 39 94  1  0  0  0
 39 95  1  0  0  0
 40 41  1  0  0  0
 40 96  1  0  0  0
 40 97  1  0  0  0
 41 98  1  0  0  0
M  CHG  4   3   1  12   1  26   1  30   1
M  END
> <s_m_source_file>
../5ea5_ligand.sdf

> <i_m_source_file_index>
1

> <s_epik_input>
W0NIMl0xW0NIMl1PW0NIMl1bQ0gyXVtOSCtdMVtDSDJdW0NIMl1bQ0gyXVtOSF1jKG4yKW4oW0NIMl1bQ0hdM0MoW09IXSk9W0NIXVtDSDJdW0NIXShbTkgyK10zKVtDSDNdKWMoYzI0KVtDSF09QyhbQ0gyXVtDSDJdNClbQ0gyXVtOSDIrXVtDSF01W0NIMl1bQ0hdKFtDSDNdKVtDSDJdW0NIMl1bQ0hdNVtDSDJdW0NIMl1bQ0gyXVtPSF0=

> <s_epik_cmdline>
J2VwaWtfYXBwJywgJy1pbWFlJywgJ2xpZ2FuZF9wcm8ubWFlJywgJy1vbWFlJywgJ2xpZ2FuZF9wcmVwLm1hZScsICctbXMnLCAnMScsICctcGgnLCAnNycsICctcGh0JywgJzAuNScsICctbnQn

> <r_lp_tautomer_probability>
1

> <r_epik_Ionization_Penalty>
  0.6898

> <r_epik_Ionization_Penalty_Charging>
  0.4918

> <r_epik_Ionization_Penalty_Neutral>
  0.1981

> <r_epik_State_Penalty>
 -0.0000

> <r_epik_Charging_Adjusted_Penalty>
0.491768821013942

> <i_epik_Tot_Q>
4

> <i_epik_Tot_abs_Q>
4

$$$$
