5ea6_ligand
                    3D
 Schrodinger Suite 2020-3.
 47 51  0  0  1  0            999 V2000
   19.2620   21.0940   21.5910 C   0  0  0  0  0  0
   21.6120   18.5500   21.6150 C   0  0  0  0  0  0
   17.4830   19.1950   20.4890 C   0  0  0  0  0  0
   19.5960   20.1780   17.5700 C   0  0  0  0  0  0
   16.2230   19.6110   21.2360 C   0  0  0  0  0  0
   21.3140   15.2500   19.2020 C   0  0  0  0  0  0
   19.9910   20.9790   16.3400 C   0  0  0  0  0  0
   21.1850   21.9190   16.4080 C   0  0  0  0  0  0
   15.0470   18.6560   21.1560 C   0  0  0  0  0  0
   13.7570   20.1980   22.7140 C   0  0  0  0  0  0
   21.6590   22.8580   15.0300 Cl  0  0  0  0  0  0
   22.3930   18.4140   22.5420 O   0  0  0  0  0  0
   17.3970   18.2300   19.7550 O   0  0  0  0  0  0
   20.8360   19.7560   21.3110 N   0  0  0  0  0  0
   18.7610   19.8310   20.6870 N   0  0  0  0  0  0
   20.3260   15.8080   18.2650 N   0  0  1  0  0  0
   13.8260   18.9820   21.8880 N   0  0  0  0  0  0
   19.9700   19.4850   20.1170 C   0  0  2  0  0  0
   20.7200   20.7730   21.8480 C   0  0  0  0  0  0
   20.3330   18.0680   19.6160 C   0  0  0  0  0  0
   20.4130   20.2790   18.8550 C   0  0  0  0  0  0
   21.2830   17.4990   20.5470 C   0  0  0  0  0  0
   19.8210   17.1800   18.4600 C   0  0  0  0  0  0
   21.5850   21.2560   18.8930 C   0  0  0  0  0  0
   21.8010   16.1080   20.3630 C   0  0  0  0  0  0
   21.9920   22.0630   17.6780 C   0  0  0  0  0  0
   16.1550   20.8290   22.0690 C   0  0  0  0  0  0
   14.9320   21.1510   22.8090 C   0  0  0  0  0  0
   19.1284   22.0269   21.0236 H   0  0  0  0  0  0
   18.6699   21.1400   22.5169 H   0  0  0  0  0  0
   18.7228   19.5267   17.5339 H   0  0  0  0  0  0
   20.8986   14.3507   19.6802 H   0  0  0  0  0  0
   22.2298   14.9840   18.6538 H   0  0  0  0  0  0
   19.4224   20.8805   15.4153 H   0  0  0  0  0  0
   15.1121   17.7436   20.5633 H   0  0  0  0  0  0
   12.8441   20.4175   23.2677 H   0  0  0  0  0  0
   20.7500   15.8215   17.2501 H   0  0  0  0  0  0
   21.3511   21.5643   21.4172 H   0  0  0  0  0  0
   20.8966   20.7126   22.9320 H   0  0  0  0  0  0
   20.0381   17.7813   17.5649 H   0  0  0  0  0  0
   18.7342   17.1504   18.6270 H   0  0  0  0  0  0
   22.1447   21.3762   19.8206 H   0  0  0  0  0  0
   21.5578   15.6108   21.3136 H   0  0  0  0  0  0
   22.8901   16.2427   20.2878 H   0  0  0  0  0  0
   22.8498   22.7343   17.7184 H   0  0  0  0  0  0
   17.0184   21.4912   22.1335 H   0  0  0  0  0  0
   14.8685   22.0554   23.4141 H   0  0  0  0  0  0
  1 15  1  0  0  0
  1 19  1  0  0  0
  1 29  1  0  0  0
  1 30  1  0  0  0
  2 12  2  0  0  0
  2 14  1  0  0  0
  2 22  1  0  0  0
  3  5  1  0  0  0
  3 13  2  0  0  0
  3 15  1  0  0  0
  4  7  2  0  0  0
  4 21  1  0  0  0
  4 31  1  0  0  0
  5  9  2  0  0  0
  5 27  1  0  0  0
  6 16  1  0  0  0
  6 25  1  0  0  0
  6 32  1  0  0  0
  6 33  1  0  0  0
  7  8  1  0  0  0
  7 34  1  0  0  0
  8 11  1  0  0  0
  8 26  2  0  0  0
  9 17  1  0  0  0
  9 35  1  0  0  0
 10 17  2  0  0  0
 10 28  1  0  0  0
 10 36  1  0  0  0
 14 18  1  0  0  0
 14 19  1  0  0  0
 15 18  1  0  0  0
 16 23  1  0  0  0
 16 37  1  0  0  0
 18 20  1  0  0  0
 18 21  1  0  0  0
 19 38  1  0  0  0
 19 39  1  0  0  0
 20 22  2  0  0  0
 20 23  1  0  0  0
 21 24  2  0  0  0
 22 25  1  0  0  0
 23 40  1  0  0  0
 23 41  1  0  0  0
 24 26  1  0  0  0
 24 42  1  0  0  0
 25 43  1  0  0  0
 25 44  1  0  0  0
 26 45  1  0  0  0
 27 28  2  0  0  0
 27 46  1  0  0  0
 28 47  1  0  0  0
M  END
> <s_m_source_file>
../5ea6_ligand.sdf

> <i_m_source_file_index>
1

> <s_epik_input>
W2NIXTFbY0hdW2NIXW5bY0hdYzFDKD1PKU4yW0NIMl1bQ0gyXU4oW0NAXTIzYyhbY0hdW2NIXTQpW2NIXVtjSF1jNENsKUMoPU8pQzU9QzNbQ0gyXVtOSDIrXVtDSDJdW0NIMl01

> <s_epik_cmdline>
J2VwaWtfYXBwJywgJy1pbWFlJywgJ2xpZ2FuZF9wcm8ubWFlJywgJy1vbWFlJywgJ2xpZ2FuZF9wcmVwLm1hZScsICctbXMnLCAnMScsICctcGgnLCAnNycsICctcGh0JywgJzAuNScsICctbnQn

> <r_lp_tautomer_probability>
1

> <r_epik_Ionization_Penalty>
  0.1680

> <r_epik_Ionization_Penalty_Charging>
  0.0000

> <r_epik_Ionization_Penalty_Neutral>
  0.1680

> <r_epik_State_Penalty>
  0.1572

> <r_epik_Charging_Adjusted_Penalty>
0.157161728555557

> <i_epik_Tot_Q>
0

> <i_epik_Tot_abs_Q>
0

$$$$
