5ea7_ligand
                    3D
 Schrodinger Suite 2020-3.
 51 55  0  0  1  0            999 V2000
   16.6060   21.7640   21.8010 C   0  0  0  0  0  0
   21.4770   20.6180   19.6330 C   0  0  0  0  0  0
   22.8060   22.4180   19.5840 C   0  0  0  0  0  0
   23.7070   24.0680   17.4940 C   0  0  0  0  0  0
   22.8610   22.9800   17.2230 C   0  0  0  0  0  0
   22.4050   22.1440   18.2890 C   0  0  0  0  0  0
   20.9510   20.4050   17.1780 C   0  0  0  0  0  0
   18.8290   20.2150   15.7570 C   0  0  0  0  0  0
   15.1650   17.5880   20.5270 C   0  0  0  0  0  0
   15.0340   18.1620   19.1310 C   0  0  0  0  0  0
   15.6710   18.9920   20.2340 C   0  0  0  0  0  0
   17.0040   19.4970   20.4490 N   0  0  0  0  0  0
   17.3490   20.7160   21.1420 C   0  0  0  0  0  0
   18.7520   20.8450   21.1320 C   0  0  0  0  0  0
   19.3550   21.9710   21.7550 C   0  0  0  0  0  0
   18.6150   22.9080   22.3480 N   0  0  0  0  0  0
   17.2790   22.8400   22.3890 C   0  0  0  0  0  0
   19.2950   19.7060   20.4280 N   0  0  0  0  0  0
   18.2110   18.8830   20.0180 C   0  0  0  0  0  0
   18.3040   17.8360   19.4020 O   0  0  0  0  0  0
   20.6860   19.4110   20.1770 C   0  0  0  0  0  0
   22.2170   21.4520   20.3980 N   0  0  0  0  0  0
   23.6690   23.5270   19.8560 C   0  0  0  0  0  0
   24.1130   24.3470   18.8100 C   0  0  0  0  0  0
   21.5760   21.0260   18.3340 N   0  0  0  0  0  0
   19.4180   20.5520   17.1410 C   0  0  0  0  0  0
   17.2970   20.1200   15.7700 C   0  0  0  0  0  0
   16.8340   20.0820   14.4310 O   0  0  0  0  0  0
   15.5177   21.7165   21.8404 H   0  0  0  0  0  0
   24.0515   24.7013   16.6765 H   0  0  0  0  0  0
   22.5518   22.7729   16.1985 H   0  0  0  0  0  0
   21.3436   20.8635   16.2584 H   0  0  0  0  0  0
   21.1743   19.3279   17.1749 H   0  0  0  0  0  0
   19.1111   20.9982   15.0379 H   0  0  0  0  0  0
   19.2229   19.2459   15.4169 H   0  0  0  0  0  0
   14.1663   17.3447   20.9186 H   0  0  0  0  0  0
   15.7775   16.6750   20.4921 H   0  0  0  0  0  0
   15.5831   17.5268   18.4204 H   0  0  0  0  0  0
   13.9719   18.1965   18.8469 H   0  0  0  0  0  0
   15.5573   20.0266   20.5900 H   0  0  0  0  0  0
   20.4405   22.0702   21.7479 H   0  0  0  0  0  0
   16.7117   23.6283   22.8838 H   0  0  0  0  0  0
   20.7238   18.5888   19.4472 H   0  0  0  0  0  0
   21.1308   19.0790   21.1267 H   0  0  0  0  0  0
   23.9817   23.7343   20.8794 H   0  0  0  0  0  0
   24.7677   25.1940   19.0154 H   0  0  0  0  0  0
   18.9665   19.8709   17.8774 H   0  0  0  0  0  0
   19.1431   21.5890   17.3839 H   0  0  0  0  0  0
   16.9909   19.2047   16.2978 H   0  0  0  0  0  0
   16.8796   20.9975   16.2854 H   0  0  0  0  0  0
   15.7559   20.0136   14.2236 H   0  0  0  0  0  0
  1 13  2  0  0  0
  1 17  1  0  0  0
  1 29  1  0  0  0
  2 21  1  0  0  0
  2 22  2  0  0  0
  2 25  1  0  0  0
  3  6  2  0  0  0
  3 22  1  0  0  0
  3 23  1  0  0  0
  4  5  2  0  0  0
  4 24  1  0  0  0
  4 30  1  0  0  0
  5  6  1  0  0  0
  5 31  1  0  0  0
  6 25  1  0  0  0
  7 25  1  0  0  0
  7 26  1  0  0  0
  7 32  1  0  0  0
  7 33  1  0  0  0
  8 26  1  0  0  0
  8 27  1  0  0  0
  8 34  1  0  0  0
  8 35  1  0  0  0
  9 10  1  0  0  0
  9 11  1  0  0  0
  9 36  1  0  0  0
  9 37  1  0  0  0
 10 11  1  0  0  0
 10 38  1  0  0  0
 10 39  1  0  0  0
 11 12  1  0  0  0
 11 40  1  0  0  0
 12 13  1  0  0  0
 12 19  1  0  0  0
 13 14  1  0  0  0
 14 15  2  0  0  0
 14 18  1  0  0  0
 15 16  1  0  0  0
 15 41  1  0  0  0
 16 17  2  0  0  0
 17 42  1  0  0  0
 18 19  1  0  0  0
 18 21  1  0  0  0
 19 20  2  0  0  0
 21 43  1  0  0  0
 21 44  1  0  0  0
 23 24  2  0  0  0
 23 45  1  0  0  0
 24 46  1  0  0  0
 26 47  1  0  0  0
 26 48  1  0  0  0
 27 28  1  0  0  0
 27 49  1  0  0  0
 27 50  1  0  0  0
 28 51  1  0  0  0
M  END
> <s_m_source_file>
../5ea7_ligand.sdf

> <i_m_source_file_index>
1

> <s_epik_input>
W2NIXTFbY0hdbltjSF1jKGMxMiluKGMoPU8pbjJbQ0hdM1tDSDJdW0NIMl0zKVtDSDJdYyhuNCluKGMoYzQ1KVtjSF1bY0hdW2NIXVtjSF01KVtDSDJdW0NIMl1bQ0gyXVtDSDJdW09IXQ==

> <s_epik_cmdline>
J2VwaWtfYXBwJywgJy1pbWFlJywgJ2xpZ2FuZF9wcm8ubWFlJywgJy1vbWFlJywgJ2xpZ2FuZF9wcmVwLm1hZScsICctbXMnLCAnMScsICctcGgnLCAnNycsICctcGh0JywgJzAuNScsICctbnQn

> <r_lp_tautomer_probability>
1

> <r_epik_Ionization_Penalty>
  0.0251

> <r_epik_Ionization_Penalty_Charging>
  0.0000

> <r_epik_Ionization_Penalty_Neutral>
  0.0251

> <r_epik_State_Penalty>
 -0.0000

> <r_epik_Charging_Adjusted_Penalty>
9.78561050160529e-10

> <i_epik_Tot_Q>
0

> <i_epik_Tot_abs_Q>
0

$$$$
