5eay_ligand
                    3D
 Schrodinger Suite 2020-3.
216218  0  0  1  0            999 V2000
   53.5430   -6.3390   33.6810 N   0  3  0  0  0  0
   52.6890   -6.5680   32.4760 C   0  0  2  0  0  0
   53.4850   -7.0110   31.2360 C   0  0  0  0  0  0
   54.2510   -7.9770   31.3080 O   0  0  0  0  0  0
   51.7730   -5.3590   32.1940 C   0  0  0  0  0  0
   52.1380   -4.1320   33.0160 C   0  0  0  0  0  0
   53.2180   -3.5610   32.8660 O   0  0  0  0  0  0
   51.2270   -3.7190   33.8900 N   0  0  0  0  0  0
   53.3000   -6.2990   30.1210 N   0  0  0  0  0  0
   53.9100   -6.6220   28.8180 C   0  0  2  0  0  0
   53.4990   -7.9910   28.2740 C   0  0  0  0  0  0
   52.6150   -8.0890   27.4200 O   0  0  0  0  0  0
   55.4430   -6.4780   28.8520 C   0  0  0  0  0  0
   55.9650   -5.1360   28.3540 C   0  0  0  0  0  0
   55.7270   -4.9180   26.8670 C   0  0  0  0  0  0
   55.3300   -3.7970   26.4890 O   0  0  0  0  0  0
   55.9280   -5.8640   26.0740 O   0  0  0  0  0  0
   54.1470   -9.0370   28.7800 N   0  0  0  0  0  0
   53.8860  -10.4150   28.3750 C   0  0  2  0  0  0
   52.7180  -11.0220   29.1630 C   0  0  0  0  0  0
   52.0670  -11.9780   28.7070 O   0  0  0  0  0  0
   55.1560  -11.2470   28.5720 C   0  0  0  0  0  0
   55.2490  -12.6590   28.0080 C   0  0  0  0  0  0
   55.1250  -12.6660   26.4880 C   0  0  0  0  0  0
   56.5690  -13.2720   28.4500 C   0  0  0  0  0  0
   52.4650  -10.4540   30.3430 N   0  0  0  0  0  0
   51.3540  -10.8570   31.2030 C   0  0  2  0  0  0
   50.0050  -10.5550   30.5480 C   0  0  0  0  0  0
   49.0580  -11.3280   30.6920 O   0  0  0  0  0  0
   51.4510  -10.1700   32.5710 C   0  0  0  0  0  0
   52.6420  -10.5980   33.4190 C   0  0  0  0  0  0
   52.3840  -11.8490   34.2500 C   0  0  0  0  0  0
   53.3250  -12.3050   34.9380 O   0  0  0  0  0  0
   51.2460  -12.3760   34.2330 O   0  0  0  0  0  0
   49.9300   -9.4420   29.8170 N   0  0  0  0  0  0
   48.7040   -9.0430   29.1150 C   0  0  2  0  0  0
   48.3760   -9.9540   27.9330 C   0  0  0  0  0  0
   47.2120  -10.2740   27.6860 O   0  0  0  0  0  0
   48.8010   -7.5860   28.6490 C   0  0  0  0  0  0
   48.1690   -6.4570   29.4760 C   0  0  0  0  0  0
   48.4590   -6.5590   30.9680 C   0  0  0  0  0  0
   48.6380   -5.1150   28.9310 C   0  0  0  0  0  0
   49.4060  -10.3710   27.2070 N   0  0  0  0  0  0
   49.2360  -11.2340   26.0570 C   0  0  2  0  0  0
   48.7530  -12.6300   26.4710 C   0  0  0  0  0  0
   48.0690  -13.3220   25.6970 O   0  0  0  0  0  0
   50.5470  -11.3100   25.2720 C   0  0  0  0  0  0
   51.3150   -9.9840   25.1180 C   0  0  0  0  0  0
   52.7710  -10.2240   24.7350 C   0  0  0  0  0  0
   50.6470   -9.0300   24.1340 C   0  0  0  0  0  0
   49.0850  -13.0220   27.7030 N   0  0  0  0  0  0
   48.7320  -14.3420   28.2240 C   0  0  2  0  0  0
   47.6130  -14.2800   29.2630 C   0  0  0  0  0  0
   47.2220  -15.3060   29.8280 O   0  0  0  0  0  0
   49.9760  -15.0260   28.8140 C   0  0  0  0  0  0
   51.0600  -15.3060   27.7850 C   0  0  0  0  0  0
   50.5610  -16.5250   26.5450 S   0  0  0  0  0  0
   50.3060  -17.9630   27.5750 C   0  0  0  0  0  0
   47.0880  -13.0770   29.4940 N   0  0  0  0  0  0
   46.0650  -12.8410   30.5210 C   0  0  2  0  0  0
   44.7690  -13.6240   30.2650 C   0  0  0  0  0  0
   44.1680  -14.1720   31.1980 O   0  0  0  0  0  0
   45.7620  -11.3400   30.6330 C   0  0  0  0  0  0
   44.7730  -10.9820   31.7350 C   0  0  0  0  0  0
   44.4300   -9.5040   31.7710 C   0  0  0  0  0  0
   44.4360   -8.8510   30.7030 O   0  0  0  0  0  0
   44.1430   -8.9960   32.8750 O   0  0  0  0  0  0
   44.3380  -13.6510   29.0110 N   0  0  0  0  0  0
   43.1270  -14.3610   28.6260 C   0  0  2  0  0  0
   43.4740  -15.6780   27.9510 C   0  0  0  0  0  0
   44.6350  -15.9200   27.5800 O   0  0  0  0  0  0
   42.2710  -13.5120   27.6790 C   0  0  0  0  0  0
   41.8220  -12.1710   28.2430 C   0  0  0  0  0  0
   40.8370  -11.4910   27.2990 C   0  0  0  0  0  0
   41.0580   -9.9860   27.2240 C   0  0  0  0  0  0
   41.0480   -9.3430   28.5670 N   0  3  0  0  0  0
   42.4580  -16.5170   27.7820 N   0  0  0  0  0  0
   42.5890  -17.7460   27.0280 C   0  0  2  0  0  0
   42.8940  -17.4230   25.5660 C   0  0  0  0  0  0
   42.6480  -16.3100   25.0940 O   0  0  0  0  0  0
   41.2920  -18.5530   27.1180 C   0  0  0  0  0  0
   40.2980  -18.0030   26.2680 O   0  0  0  0  0  0
   43.4300  -18.4110   24.8560 N   0  0  0  0  0  0
   43.8030  -18.2360   23.4720 C   0  0  2  0  0  0
   42.6220  -17.7900   22.6080 C   0  0  0  0  0  0
   42.7710  -16.8830   21.7800 O   0  0  0  0  0  0
   44.4180  -19.5280   22.9330 C   0  0  0  0  0  0
   44.8740  -19.4270   21.5110 C   0  0  0  0  0  0
   45.9550  -18.6210   21.1840 C   0  0  0  0  0  0
   44.2140  -20.1210   20.4890 C   0  0  0  0  0  0
   46.3850  -18.5120   19.8690 C   0  0  0  0  0  0
   44.6490  -20.0150   19.1700 C   0  0  0  0  0  0
   45.7300  -19.2060   18.8640 C   0  0  0  0  0  0
   41.4730  -18.4430   22.7870 N   0  0  0  0  0  0
   40.2730  -18.1500   21.9990 C   0  0  2  0  0  0
   39.2640  -17.3270   22.7860 C   0  0  0  0  0  0
   39.6470  -16.5090   23.6090 O   0  0  0  0  0  0
   39.6140  -19.4280   21.4690 C   0  0  0  0  0  0
   40.2230  -19.9280   20.1840 C   0  0  0  0  0  0
   40.9770  -21.0540   20.0230 C   0  0  0  0  0  0
   40.1380  -19.3150   18.8840 C   0  0  0  0  0  0
   41.3700  -21.1840   18.7090 N   0  0  0  0  0  0
   40.8720  -20.1320   17.9870 C   0  0  0  0  0  0
   39.5100  -18.1610   18.3910 C   0  0  0  0  0  0
   41.0000  -19.8320   16.6230 C   0  0  0  0  0  0
   39.6340  -17.8630   17.0260 C   0  0  0  0  0  0
   40.3790  -18.6970   16.1620 C   0  0  0  0  0  0
   38.0660  -17.4810   22.5980 O   0  0  0  0  0  0
   54.1808   -7.2189   33.8509 H   0  0  0  0  0  0
   52.9014   -6.1760   34.5595 H   0  0  0  0  0  0
   54.1753   -5.4535   33.5194 H   0  0  0  0  0  0
   52.0565   -7.4255   32.7492 H   0  0  0  0  0  0
   51.8464   -5.0833   31.1316 H   0  0  0  0  0  0
   50.7324   -5.6237   32.4330 H   0  0  0  0  0  0
   50.2751   -4.2611   33.9898 H   0  0  0  0  0  0
   51.4245   -2.8349   34.5140 H   0  0  0  0  0  0
   52.6439   -5.4215   30.2187 H   0  0  0  0  0  0
   53.4786   -5.8620   28.1499 H   0  0  0  0  0  0
   55.7994   -6.5950   29.8861 H   0  0  0  0  0  0
   55.8982   -7.2526   28.2174 H   0  0  0  0  0  0
   55.4599   -4.3224   28.8952 H   0  0  0  0  0  0
   57.0491   -5.0759   28.5304 H   0  0  0  0  0  0
   55.7607   -5.7230   24.9960 H   0  0  0  0  0  0
   54.9127   -8.8228   29.5401 H   0  0  0  0  0  0
   53.6083  -10.3683   27.3117 H   0  0  0  0  0  0
   56.0101  -10.7262   28.1146 H   0  0  0  0  0  0
   55.3424  -11.3825   29.6476 H   0  0  0  0  0  0
   54.4133  -13.2590   28.3974 H   0  0  0  0  0  0
   54.1635  -12.2182   26.1965 H   0  0  0  0  0  0
   55.1733  -13.7018   26.1210 H   0  0  0  0  0  0
   55.9487  -12.0831   26.0502 H   0  0  0  0  0  0
   56.6321  -13.2542   29.5480 H   0  0  0  0  0  0
   57.4025  -12.6931   28.0254 H   0  0  0  0  0  0
   56.6270  -14.3119   28.0961 H   0  0  0  0  0  0
   53.1407   -9.6459   30.6598 H   0  0  0  0  0  0
   51.4642  -11.9454   31.3179 H   0  0  0  0  0  0
   51.5374   -9.0825   32.4299 H   0  0  0  0  0  0
   50.5479  -10.3929   33.1581 H   0  0  0  0  0  0
   53.5004  -10.8107   32.7648 H   0  0  0  0  0  0
   52.9045   -9.7895   34.1171 H   0  0  0  0  0  0
   51.0492  -13.2792   34.8292 H   0  0  0  0  0  0
   50.8308   -8.8142   29.7507 H   0  0  0  0  0  0
   47.9113   -9.1601   29.8686 H   0  0  0  0  0  0
   49.8590   -7.2939   28.5766 H   0  0  0  0  0  0
   48.3241   -7.4838   27.6630 H   0  0  0  0  0  0
   47.0765   -6.5442   29.3818 H   0  0  0  0  0  0
   48.1136   -7.5338   31.3428 H   0  0  0  0  0  0
   47.9313   -5.7537   31.5000 H   0  0  0  0  0  0
   49.5415   -6.4632   31.1385 H   0  0  0  0  0  0
   48.4203   -5.0603   27.8541 H   0  0  0  0  0  0
   49.7213   -5.0123   29.0918 H   0  0  0  0  0  0
   48.1112   -4.3028   29.4533 H   0  0  0  0  0  0
   50.4127  -10.0408   27.5028 H   0  0  0  0  0  0
   48.4546  -10.7572   25.4471 H   0  0  0  0  0  0
   51.2349  -12.0066   25.7736 H   0  0  0  0  0  0
   50.3433  -11.6669   24.2517 H   0  0  0  0  0  0
   51.2988   -9.4886   26.1000 H   0  0  0  0  0  0
   53.2313  -10.9138   25.4577 H   0  0  0  0  0  0
   53.3147   -9.2678   24.7433 H   0  0  0  0  0  0
   52.8175  -10.6635   23.7277 H   0  0  0  0  0  0
   49.5994   -8.8722   24.4300 H   0  0  0  0  0  0
   50.6812   -9.4626   23.1232 H   0  0  0  0  0  0
   51.1785   -8.0669   24.1388 H   0  0  0  0  0  0
   49.6432  -12.3135   28.3326 H   0  0  0  0  0  0
   48.3548  -14.8928   27.3497 H   0  0  0  0  0  0
   50.4163  -14.3811   29.5887 H   0  0  0  0  0  0
   49.6881  -15.9897   29.2593 H   0  0  0  0  0  0
   51.3121  -14.3753   27.2555 H   0  0  0  0  0  0
   51.9558  -15.6935   28.2923 H   0  0  0  0  0  0
   49.9906  -18.8109   26.9493 H   0  0  0  0  0  0
   49.5260  -17.7468   28.3198 H   0  0  0  0  0  0
   51.2445  -18.2163   28.0898 H   0  0  0  0  0  0
   47.4515  -12.2416   28.8776 H   0  0  0  0  0  0
   46.5204  -13.2221   31.4469 H   0  0  0  0  0  0
   46.6925  -10.7929   30.8449 H   0  0  0  0  0  0
   45.3331  -10.9808   29.6859 H   0  0  0  0  0  0
   43.8361  -11.5375   31.5815 H   0  0  0  0  0  0
   45.2011  -11.2483   32.7126 H   0  0  0  0  0  0
   44.1896   -7.7790   30.7124 H   0  0  0  0  0  0
   44.9262  -13.1149   28.2516 H   0  0  0  0  0  0
   42.5918  -14.5455   29.5691 H   0  0  0  0  0  0
   42.8426  -13.2932   26.7650 H   0  0  0  0  0  0
   41.3568  -14.0646   27.4163 H   0  0  0  0  0  0
   41.3317  -12.3278   29.2151 H   0  0  0  0  0  0
   42.6967  -11.5172   28.3747 H   0  0  0  0  0  0
   40.9545  -11.9045   26.2865 H   0  0  0  0  0  0
   39.8100  -11.6685   27.6507 H   0  0  0  0  0  0
   42.0326   -9.7814   26.7568 H   0  0  0  0  0  0
   40.2594   -9.5277   26.6221 H   0  0  0  0  0  0
   41.2112   -8.2608   28.4566 H   0  0  0  0  0  0
   41.8493   -9.7735   29.1856 H   0  0  0  0  0  0
   40.0761   -9.5198   29.0509 H   0  0  0  0  0  0
   41.4927  -16.2516   28.2379 H   0  0  0  0  0  0
   43.4222  -18.2987   27.4865 H   0  0  0  0  0  0
   41.4848  -19.5921   26.8129 H   0  0  0  0  0  0
   40.9217  -18.5377   28.1537 H   0  0  0  0  0  0
   39.3020  -18.4668   26.2145 H   0  0  0  0  0  0
   43.5873  -19.3814   25.3496 H   0  0  0  0  0  0
   44.5476  -17.4264   23.4871 H   0  0  0  0  0  0
   45.2944  -19.7982   23.5404 H   0  0  0  0  0  0
   43.6741  -20.3368   22.9826 H   0  0  0  0  0  0
   46.4719  -18.0677   21.9681 H   0  0  0  0  0  0
   43.3547  -20.7479   20.7273 H   0  0  0  0  0  0
   47.2390  -17.8797   19.6263 H   0  0  0  0  0  0
   44.1395  -20.5677   18.3806 H   0  0  0  0  0  0
   46.0664  -19.1148   17.8312 H   0  0  0  0  0  0
   41.4464  -19.2261   23.5591 H   0  0  0  0  0  0
   40.6494  -17.5484   21.1585 H   0  0  0  0  0  0
   39.7150  -20.2294   22.2157 H   0  0  0  0  0  0
   38.5477  -19.2382   21.2768 H   0  0  0  0  0  0
   41.2321  -21.7515   20.8208 H   0  0  0  0  0  0
   38.9388  -17.5109   19.0538 H   0  0  0  0  0  0
   41.5710  -20.4756   15.9537 H   0  0  0  0  0  0
   39.1478  -16.9736   16.6251 H   0  0  0  0  0  0
   40.4625  -18.4340   15.1075 H   0  0  0  0  0  0
   37.3386  -16.8847   23.1684 H   0  0  0  0  0  0
  1  2  1  0  0  0
  1109  1  0  0  0
  1110  1  0  0  0
  1111  1  0  0  0
  2  3  1  0  0  0
  2  5  1  0  0  0
  2112  1  0  0  0
  3  4  2  0  0  0
  3  9  1  0  0  0
  5  6  1  0  0  0
  5113  1  0  0  0
  5114  1  0  0  0
  6  7  2  0  0  0
  6  8  1  0  0  0
  8115  1  0  0  0
  8116  1  0  0  0
  9 10  1  0  0  0
  9117  1  0  0  0
 10 11  1  0  0  0
 10 13  1  0  0  0
 10118  1  0  0  0
 11 12  2  0  0  0
 11 18  1  0  0  0
 13 14  1  0  0  0
 13119  1  0  0  0
 13120  1  0  0  0
 14 15  1  0  0  0
 14121  1  0  0  0
 14122  1  0  0  0
 15 16  2  0  0  0
 15 17  1  0  0  0
 17123  1  0  0  0
 18 19  1  0  0  0
 18124  1  0  0  0
 19 20  1  0  0  0
 19 22  1  0  0  0
 19125  1  0  0  0
 20 21  2  0  0  0
 20 26  1  0  0  0
 22 23  1  0  0  0
 22126  1  0  0  0
 22127  1  0  0  0
 23 24  1  0  0  0
 23 25  1  0  0  0
 23128  1  0  0  0
 24129  1  0  0  0
 24130  1  0  0  0
 24131  1  0  0  0
 25132  1  0  0  0
 25133  1  0  0  0
 25134  1  0  0  0
 26 27  1  0  0  0
 26135  1  0  0  0
 27 28  1  0  0  0
 27 30  1  0  0  0
 27136  1  0  0  0
 28 29  2  0  0  0
 28 35  1  0  0  0
 30 31  1  0  0  0
 30137  1  0  0  0
 30138  1  0  0  0
 31 32  1  0  0  0
 31139  1  0  0  0
 31140  1  0  0  0
 32 33  2  0  0  0
 32 34  1  0  0  0
 34141  1  0  0  0
 35 36  1  0  0  0
 35142  1  0  0  0
 36 37  1  0  0  0
 36 39  1  0  0  0
 36143  1  0  0  0
 37 38  2  0  0  0
 37 43  1  0  0  0
 39 40  1  0  0  0
 39144  1  0  0  0
 39145  1  0  0  0
 40 41  1  0  0  0
 40 42  1  0  0  0
 40146  1  0  0  0
 41147  1  0  0  0
 41148  1  0  0  0
 41149  1  0  0  0
 42150  1  0  0  0
 42151  1  0  0  0
 42152  1  0  0  0
 43 44  1  0  0  0
 43153  1  0  0  0
 44 45  1  0  0  0
 44 47  1  0  0  0
 44154  1  0  0  0
 45 46  2  0  0  0
 45 51  1  0  0  0
 47 48  1  0  0  0
 47155  1  0  0  0
 47156  1  0  0  0
 48 49  1  0  0  0
 48 50  1  0  0  0
 48157  1  0  0  0
 49158  1  0  0  0
 49159  1  0  0  0
 49160  1  0  0  0
 50161  1  0  0  0
 50162  1  0  0  0
 50163  1  0  0  0
 51 52  1  0  0  0
 51164  1  0  0  0
 52 53  1  0  0  0
 52 55  1  0  0  0
 52165  1  0  0  0
 53 54  2  0  0  0
 53 59  1  0  0  0
 55 56  1  0  0  0
 55166  1  0  0  0
 55167  1  0  0  0
 56 57  1  0  0  0
 56168  1  0  0  0
 56169  1  0  0  0
 57 58  1  0  0  0
 58170  1  0  0  0
 58171  1  0  0  0
 58172  1  0  0  0
 59 60  1  0  0  0
 59173  1  0  0  0
 60 61  1  0  0  0
 60 63  1  0  0  0
 60174  1  0  0  0
 61 62  2  0  0  0
 61 68  1  0  0  0
 63 64  1  0  0  0
 63175  1  0  0  0
 63176  1  0  0  0
 64 65  1  0  0  0
 64177  1  0  0  0
 64178  1  0  0  0
 65 66  1  0  0  0
 65 67  2  0  0  0
 66179  1  0  0  0
 68 69  1  0  0  0
 68180  1  0  0  0
 69 70  1  0  0  0
 69 72  1  0  0  0
 69181  1  0  0  0
 70 71  2  0  0  0
 70 77  1  0  0  0
 72 73  1  0  0  0
 72182  1  0  0  0
 72183  1  0  0  0
 73 74  1  0  0  0
 73184  1  0  0  0
 73185  1  0  0  0
 74 75  1  0  0  0
 74186  1  0  0  0
 74187  1  0  0  0
 75 76  1  0  0  0
 75188  1  0  0  0
 75189  1  0  0  0
 76190  1  0  0  0
 76191  1  0  0  0
 76192  1  0  0  0
 77 78  1  0  0  0
 77193  1  0  0  0
 78 79  1  0  0  0
 78 81  1  0  0  0
 78194  1  0  0  0
 79 80  2  0  0  0
 79 83  1  0  0  0
 81 82  1  0  0  0
 81195  1  0  0  0
 81196  1  0  0  0
 82197  1  0  0  0
 83 84  1  0  0  0
 83198  1  0  0  0
 84 85  1  0  0  0
 84 87  1  0  0  0
 84199  1  0  0  0
 85 86  2  0  0  0
 85 94  1  0  0  0
 87 88  1  0  0  0
 87200  1  0  0  0
 87201  1  0  0  0
 88 89  2  0  0  0
 88 90  1  0  0  0
 89 91  1  0  0  0
 89202  1  0  0  0
 90 92  2  0  0  0
 90203  1  0  0  0
 91 93  2  0  0  0
 91204  1  0  0  0
 92 93  1  0  0  0
 92205  1  0  0  0
 93206  1  0  0  0
 94 95  1  0  0  0
 94207  1  0  0  0
 95 96  1  0  0  0
 95 98  1  0  0  0
 95208  1  0  0  0
 96 97  2  0  0  0
 96108  1  0  0  0
 98 99  1  0  0  0
 98209  1  0  0  0
 98210  1  0  0  0
 99100  2  0  0  0
 99101  1  0  0  0
100102  1  0  0  0
100211  1  0  0  0
101103  2  0  0  0
101104  1  0  0  0
102103  1  0  0  0
103105  1  0  0  0
104106  2  0  0  0
104212  1  0  0  0
105107  2  0  0  0
105213  1  0  0  0
106107  1  0  0  0
106214  1  0  0  0
107215  1  0  0  0
108216  1  0  0  0
M  CHG  2   1   1  76   1
M  END
> <s_m_source_file>
../5eay_ligand.sdf

> <i_m_source_file_index>
1

> <s_epik_input>
Tz1DKFtOSDJdKVtDSDJdW0NASF0oW05IMytdKUMoPU8pW05IXVtDQEBIXShbQ0gyXVtDSDJdQyg9TylbT0hdKUMoPU8pW05IXVtDQEBIXShbQ0gyXVtDSF0oW0NIM10pW0NIM10pQyg9TylbTkhdW0NAQEhdKFtDSDJdW0NIMl1DKD1PKVtPSF0pQyg9TylbTkhdW0NAQEhdKFtDSDJdW0NIXShbQ0gzXSlbQ0gzXSlDKD1PKVtOSF1bQ0BASF0oW0NIMl1bQ0hdKFtDSDNdKVtDSDNdKUMoPU8pW05IXVtDQEBIXShbQ0gyXVtDSDJdU1tDSDNdKUMoPU8pW05IXVtDQEBIXShbQ0gyXVtDSDJdQyg9TylbT0hdKUMoPU8pW05IXVtDQEBIXShbQ0gyXVtDSDJdW0NIMl1bQ0gyXVtOSDMrXSlDKD1PKVtOSF1bQ0BASF0oW0NIMl1bT0hdKUMoPU8pW05IXVtDQEBIXShbQ0gyXWMxW2NIXVtjSF1bY0hdW2NIXVtjSF0xKUMoPU8pW05IXVtDQEhdKEMoPU8pW09IXSlbQ0gyXWMyW2NIXVtuSF1jKGMyMylbY0hdW2NIXVtjSF1bY0hdMw==

> <s_epik_cmdline>
J2VwaWtfYXBwJywgJy1pbWFlJywgJ2xpZ2FuZF9wcm8ubWFlJywgJy1vbWFlJywgJ2xpZ2FuZF9wcmVwLm1hZScsICctbXMnLCAnMScsICctcGgnLCAnNycsICctcGh0JywgJzAuNScsICctbnQn

> <s_epik_pKa_notes>
Molecule size exceeds maximum supported for generating protonation states

$$$$
