5ece_ligand
                    3D
 Schrodinger Suite 2020-3.
 56 60  0  0  1  0            999 V2000
   14.7510   -3.4340   44.6540 C   0  0  0  0  0  0
   14.6400   -4.2000   43.5030 C   0  0  0  0  0  0
   13.4590   -4.2130   42.7770 C   0  0  0  0  0  0
   11.4070   -1.6720   44.6600 C   0  0  0  0  0  0
   11.1380   -3.3750   42.4110 C   0  0  0  0  0  0
   11.3970   -0.7980   45.8940 C   0  0  0  0  0  0
   11.6830    0.6680   45.6520 C   0  0  0  0  0  0
   12.3310    1.4400   46.6160 C   0  0  0  0  0  0
   12.5930    2.7850   46.3890 C   0  0  0  0  0  0
   12.2120    3.3760   45.1920 C   0  0  0  0  0  0
   11.1120    3.1470   42.8790 C   0  0  0  0  0  0
    9.8740    5.1640   43.8360 C   0  0  0  0  0  0
    6.5710    6.1000   42.3200 C   0  0  0  0  0  0
    4.1950    7.4860   41.9880 C   0  0  0  0  0  0
    4.5820    6.9130   43.1870 C   0  0  0  0  0  0
    7.1330    6.6800   39.8470 C   0  0  0  0  0  0
   12.3860   -3.4160   43.1850 C   0  0  0  0  0  0
   12.5230   -2.5840   44.3150 C   0  0  0  0  0  0
   13.7040   -2.6210   45.0620 C   0  0  0  0  0  0
   10.2970   -1.6770   43.9990 N   0  0  0  0  0  0
   10.2080   -2.5130   42.8630 N   0  0  0  0  0  0
   10.9180   -4.0700   41.4240 O   0  0  0  0  0  0
   11.5160    2.6340   44.2320 C   0  0  0  0  0  0
   11.2950    1.2740   44.4540 C   0  0  0  0  0  0
   11.4020    2.4790   41.9030 O   0  0  0  0  0  0
   10.4220    4.3100   42.7690 N   0  0  0  0  0  0
    8.3360    5.0930   43.8270 C   0  0  0  0  0  0
    7.7920    5.3970   42.4930 N   0  0  0  0  0  0
    8.4190    4.6000   41.4280 C   0  0  0  0  0  0
    9.9260    4.7690   41.4660 C   0  0  0  0  0  0
    6.2690    6.7350   40.9980 C   0  0  0  0  0  0
    5.0430    7.3990   40.8950 C   0  0  0  0  0  0
    5.7160    6.2080   43.3540 N   0  0  0  0  0  0
    7.8410    6.6030   38.9560 N   0  0  0  0  0  0
   15.6679   -3.4713   45.2422 H   0  0  0  0  0  0
   15.4880   -4.7965   43.1666 H   0  0  0  0  0  0
   13.3677   -4.8422   41.8917 H   0  0  0  0  0  0
   10.4068   -0.8478   46.3705 H   0  0  0  0  0  0
   12.1621   -1.1523   46.6005 H   0  0  0  0  0  0
   12.6351    0.9829   47.5577 H   0  0  0  0  0  0
   13.0985    3.3773   47.1518 H   0  0  0  0  0  0
   12.4558    4.4208   44.9998 H   0  0  0  0  0  0
   10.2472    4.8175   44.8110 H   0  0  0  0  0  0
   10.1899    6.2047   43.6713 H   0  0  0  0  0  0
    3.2367    7.9986   41.9044 H   0  0  0  0  0  0
    3.9277    7.0407   44.0494 H   0  0  0  0  0  0
   13.8017   -2.0133   45.9616 H   0  0  0  0  0  0
    9.2524   -2.4050   42.3290 H   0  0  0  0  0  0
   10.8125    0.6754   43.6813 H   0  0  0  0  0  0
    8.0140    4.0808   44.1129 H   0  0  0  0  0  0
    7.9310    5.8227   44.5437 H   0  0  0  0  0  0
    8.1720    3.5377   41.5713 H   0  0  0  0  0  0
    8.0435    4.9351   40.4499 H   0  0  0  0  0  0
   10.1853    5.8290   41.3277 H   0  0  0  0  0  0
   10.3879    4.1712   40.6665 H   0  0  0  0  0  0
    4.7516    7.8520   39.9474 H   0  0  0  0  0  0
  1  2  2  0  0  0
  1 19  1  0  0  0
  1 35  1  0  0  0
  2  3  1  0  0  0
  2 36  1  0  0  0
  3 17  2  0  0  0
  3 37  1  0  0  0
  4  6  1  0  0  0
  4 18  1  0  0  0
  4 20  2  0  0  0
  5 17  1  0  0  0
  5 21  1  0  0  0
  5 22  2  0  0  0
  6  7  1  0  0  0
  6 38  1  0  0  0
  6 39  1  0  0  0
  7  8  2  0  0  0
  7 24  1  0  0  0
  8  9  1  0  0  0
  8 40  1  0  0  0
  9 10  2  0  0  0
  9 41  1  0  0  0
 10 23  1  0  0  0
 10 42  1  0  0  0
 11 23  1  0  0  0
 11 25  2  0  0  0
 11 26  1  0  0  0
 12 26  1  0  0  0
 12 27  1  0  0  0
 12 43  1  0  0  0
 12 44  1  0  0  0
 13 28  1  0  0  0
 13 31  2  0  0  0
 13 33  1  0  0  0
 14 15  1  0  0  0
 14 32  2  0  0  0
 14 45  1  0  0  0
 15 33  2  0  0  0
 15 46  1  0  0  0
 16 31  1  0  0  0
 16 34  3  0  0  0
 17 18  1  0  0  0
 18 19  2  0  0  0
 19 47  1  0  0  0
 20 21  1  0  0  0
 21 48  1  0  0  0
 23 24  2  0  0  0
 24 49  1  0  0  0
 26 30  1  0  0  0
 27 28  1  0  0  0
 27 50  1  0  0  0
 27 51  1  0  0  0
 28 29  1  0  0  0
 29 30  1  0  0  0
 29 52  1  0  0  0
 29 53  1  0  0  0
 30 54  1  0  0  0
 30 55  1  0  0  0
 31 32  1  0  0  0
 32 56  1  0  0  0
M  END
> <s_m_source_file>
../5ece_ligand.sdf

> <i_m_source_file_index>
1

> <s_epik_input>
W2NIXTFbY0hdW2NIXVtjSF1jKGMxMiljKG5bbkhdYzI9TylbQ0gyXWMzW2NIXVtjSF1bY0hdYyhbY0hdMylDKD1PKU40W0NIMl1bQ0gyXU4oW0NIMl1bQ0gyXTQpYzVjKEMjTilbY0hdW2NIXVtjSF1uNQ==

> <s_epik_cmdline>
J2VwaWtfYXBwJywgJy1pbWFlJywgJ2xpZ2FuZF9wcm8ubWFlJywgJy1vbWFlJywgJ2xpZ2FuZF9wcmVwLm1hZScsICctbXMnLCAnMScsICctcGgnLCAnNycsICctcGh0JywgJzAuNScsICctbnQn

> <r_lp_tautomer_probability>
1

> <r_epik_Ionization_Penalty>
  0.0001

> <r_epik_Ionization_Penalty_Charging>
  0.0001

> <r_epik_Ionization_Penalty_Neutral>
  0.0000

> <r_epik_State_Penalty>
 -0.0000

> <r_epik_Charging_Adjusted_Penalty>
0.000118212204486423

> <i_epik_Tot_Q>
0

> <i_epik_Tot_abs_Q>
0

$$$$
