5edq_ligand
                    3D
 Schrodinger Suite 2020-3.
 41 45  0  0  1  0            999 V2000
  -51.3930   -1.1170  -24.8240 C   0  0  0  0  0  0
  -55.5810    1.8310  -25.1950 C   0  0  0  0  0  0
  -52.1070   -0.5880  -25.9020 C   0  0  0  0  0  0
  -53.5250    0.4880  -24.4130 C   0  0  0  0  0  0
  -54.6630    1.4150  -24.2100 C   0  0  0  0  0  0
  -54.9710    2.0740  -23.0530 C   0  0  0  0  0  0
  -51.8090   -0.7950  -23.5340 C   0  0  0  0  0  0
  -50.0310   -0.4510  -21.8250 C   0  0  0  0  0  0
  -50.8860   -1.4930  -22.5630 C   0  0  0  0  0  0
  -53.1550    0.1980  -25.6510 N   0  0  0  0  0  0
  -52.8640   -0.0020  -23.3660 N   0  0  0  0  0  0
  -56.0480    2.8350  -23.2920 N   0  0  0  0  0  0
  -56.4080    2.6650  -24.6330 N   0  0  0  0  0  0
  -51.7040   -0.8790  -27.1960 N   0  5  0  0  0  0
  -52.3170   -0.3730  -28.3420 C   0  0  0  0  0  0
  -52.6250    1.0250  -28.6660 C   0  0  0  0  0  0
  -52.4990    2.2630  -28.0050 C   0  0  0  0  0  0
  -52.9100    3.4190  -28.6290 C   0  0  0  0  0  0
  -53.4120    3.3920  -29.9350 C   0  0  0  0  0  0
  -53.5810    2.1760  -30.5750 C   0  0  0  0  0  0
  -53.1740    0.9940  -29.9640 C   0  0  0  0  0  0
  -53.1860   -0.3050  -30.3760 N   0  0  0  0  0  0
  -52.6480   -1.1010  -29.3700 N   0  3  0  0  0  0
  -54.2180    2.0570  -32.1770 Cl  0  0  0  0  0  0
  -50.1940   -2.0250  -24.7290 C   0  0  0  0  0  0
  -50.0650   -2.3910  -23.3400 O   0  0  0  0  0  0
  -51.7030   -2.3080  -21.5560 C   0  0  0  0  0  0
  -55.5007    1.4423  -26.2209 H   0  0  0  0  0  0
  -54.4368    1.9949  -22.1062 H   0  0  0  0  0  0
  -49.4482    0.1290  -22.5557 H   0  0  0  0  0  0
  -49.3461   -0.9626  -21.1328 H   0  0  0  0  0  0
  -50.6867    0.2264  -21.2583 H   0  0  0  0  0  0
  -52.0729    2.3065  -26.9918 H   0  0  0  0  0  0
  -52.8463    4.3817  -28.1007 H   0  0  0  0  0  0
  -53.6679    4.3210  -30.4444 H   0  0  0  0  0  0
  -50.3568   -2.9141  -25.3559 H   0  0  0  0  0  0
  -49.2994   -1.4888  -25.0785 H   0  0  0  0  0  0
  -52.3316   -1.6302  -20.9598 H   0  0  0  0  0  0
  -51.0214   -2.8571  -20.8897 H   0  0  0  0  0  0
  -52.3428   -3.0220  -22.0953 H   0  0  0  0  0  0
  -52.5563   -2.1871  -29.5179 H   0  0  0  0  0  0
  1  3  2  0  0  0
  1  7  1  0  0  0
  1 25  1  0  0  0
  2  5  2  0  0  0
  2 13  1  0  0  0
  2 28  1  0  0  0
  3 10  1  0  0  0
  3 14  1  0  0  0
  4  5  1  0  0  0
  4 10  2  0  0  0
  4 11  1  0  0  0
  5  6  1  0  0  0
  6 12  1  0  0  0
  6 29  1  0  0  0
  7  9  1  0  0  0
  7 11  2  0  0  0
  8  9  1  0  0  0
  8 30  1  0  0  0
  8 31  1  0  0  0
  8 32  1  0  0  0
  9 26  1  0  0  0
  9 27  1  0  0  0
 12 13  2  0  0  0
 14 15  1  0  0  0
 15 16  2  0  0  0
 15 23  1  0  0  0
 16 17  1  0  0  0
 16 21  1  0  0  0
 17 18  2  0  0  0
 17 33  1  0  0  0
 18 19  1  0  0  0
 18 34  1  0  0  0
 19 20  1  0  0  0
 19 35  1  0  0  0
 20 21  2  0  0  0
 20 24  1  0  0  0
 21 22  1  0  0  0
 22 23  2  0  0  0
 23 41  1  0  0  0
 25 26  1  0  0  0
 25 36  1  0  0  0
 25 37  1  0  0  0
 27 38  1  0  0  0
 27 39  1  0  0  0
 27 40  1  0  0  0
M  CHG  2  14  -1  23   1
M  END
> <s_m_source_file>
../5edq_ligand.sdf

> <i_m_source_file_index>
1

> <s_epik_input>
W0NIMl0xTj1OW0NIXT1DMWMobmMoYzIzKUMoW0NIM10pKFtDSDNdKU9bQ0gyXTMpbmMyW05IXUM9NE49TkMoQzQ1KT1DKENsKVtDSDJdW0NIXT1bQ0hdNQ==

> <s_epik_cmdline>
J2VwaWtfYXBwJywgJy1pbWFlJywgJ2xpZ2FuZF9wcm8ubWFlJywgJy1vbWFlJywgJ2xpZ2FuZF9wcmVwLm1hZScsICctbXMnLCAnMScsICctcGgnLCAnNycsICctcGh0JywgJzAuNScsICctbnQn

> <r_lp_tautomer_probability>
1

> <r_epik_Ionization_Penalty>
  0.0000

> <r_epik_Ionization_Penalty_Charging>
  0.0000

> <r_epik_Ionization_Penalty_Neutral>
  0.0000

> <r_epik_State_Penalty>
 -0.0000

> <r_epik_Charging_Adjusted_Penalty>
2.07120702688072e-07

> <i_epik_Tot_Q>
0

> <i_epik_Tot_abs_Q>
2

> <s_epik_Chemistry_Notes>
This compound has an imine and may undergo hydrolysis.

$$$$
