5edr_ligand
                    3D
 Schrodinger Suite 2020-3.
 45 49  0  0  1  0            999 V2000
  -51.1190   -0.9520  -24.6210 C   0  0  0  0  0  0
  -54.7240    1.7880  -21.8010 C   0  0  0  0  0  0
  -51.7440   -0.4470  -25.7700 C   0  0  0  0  0  0
  -56.4270    2.4670  -24.9100 C   0  0  0  0  0  0
  -53.3540    0.5510  -24.4070 C   0  0  0  0  0  0
  -54.5890    1.3630  -24.3160 C   0  0  0  0  0  0
  -55.3590    1.7240  -25.3860 C   0  0  0  0  0  0
  -51.6850   -0.6700  -23.3750 C   0  0  0  0  0  0
  -50.1220   -0.1900  -21.5060 C   0  0  0  0  0  0
  -50.8250   -1.3030  -22.3020 C   0  0  0  0  0  0
  -52.8600    0.2680  -25.6050 N   0  0  0  0  0  0
  -52.7860    0.0640  -23.3140 N   0  0  0  0  0  0
  -56.3170    2.5860  -23.6120 N   0  0  0  0  0  0
  -55.1790    1.8890  -23.1920 N   0  0  0  0  0  0
  -51.2130   -0.6850  -27.0360 N   0  0  0  0  0  0
  -51.7040   -0.1170  -28.2290 C   0  0  0  0  0  0
  -52.0740    1.2860  -28.5080 C   0  0  0  0  0  0
  -52.1010    2.4780  -27.7580 C   0  0  0  0  0  0
  -52.5440    3.6370  -28.3490 C   0  0  0  0  0  0
  -52.9260    3.6680  -29.7020 C   0  0  0  0  0  0
  -52.8910    2.5310  -30.4620 C   0  0  0  0  0  0
  -52.4770    1.3230  -29.8700 C   0  0  0  0  0  0
  -52.3510    0.0440  -30.3440 N   0  0  0  0  0  0
  -51.8870   -0.7920  -29.3330 N   0  0  0  0  0  0
  -49.8800   -1.7790  -24.3900 C   0  0  0  0  0  0
  -49.8780   -2.1470  -22.9930 O   0  0  0  0  0  0
  -51.6770   -2.1740  -21.3640 C   0  0  0  0  0  0
  -53.8063    1.1829  -21.7584 H   0  0  0  0  0  0
  -55.5066    1.3106  -21.1930 H   0  0  0  0  0  0
  -54.5179    2.7948  -21.4086 H   0  0  0  0  0  0
  -57.2290    2.8848  -25.5185 H   0  0  0  0  0  0
  -55.1668    1.4720  -26.4289 H   0  0  0  0  0  0
  -49.5172    0.4238  -22.1897 H   0  0  0  0  0  0
  -49.4696   -0.6406  -20.7435 H   0  0  0  0  0  0
  -50.8765    0.4426  -21.0156 H   0  0  0  0  0  0
  -50.3502   -1.3573  -27.1531 H   0  0  0  0  0  0
  -51.7717    2.4869  -26.7085 H   0  0  0  0  0  0
  -52.6052    4.5652  -27.7619 H   0  0  0  0  0  0
  -53.2530    4.6066  -30.1494 H   0  0  0  0  0  0
  -53.1812    2.5525  -31.5228 H   0  0  0  0  0  0
  -49.9118   -2.6736  -25.0293 H   0  0  0  0  0  0
  -48.9896   -1.1826  -24.6379 H   0  0  0  0  0  0
  -52.4020   -1.5399  -20.8327 H   0  0  0  0  0  0
  -51.0236   -2.6745  -20.6343 H   0  0  0  0  0  0
  -52.2149   -2.9306  -21.9541 H   0  0  0  0  0  0
  1  3  2  0  0  0
  1  8  1  0  0  0
  1 25  1  0  0  0
  2 14  1  0  0  0
  2 28  1  0  0  0
  2 29  1  0  0  0
  2 30  1  0  0  0
  3 11  1  0  0  0
  3 15  1  0  0  0
  4  7  1  0  0  0
  4 13  2  0  0  0
  4 31  1  0  0  0
  5  6  1  0  0  0
  5 11  2  0  0  0
  5 12  1  0  0  0
  6  7  2  0  0  0
  6 14  1  0  0  0
  7 32  1  0  0  0
  8 10  1  0  0  0
  8 12  2  0  0  0
  9 10  1  0  0  0
  9 33  1  0  0  0
  9 34  1  0  0  0
  9 35  1  0  0  0
 10 26  1  0  0  0
 10 27  1  0  0  0
 13 14  1  0  0  0
 15 16  1  0  0  0
 15 36  1  0  0  0
 16 17  2  0  0  0
 16 24  1  0  0  0
 17 18  1  0  0  0
 17 22  1  0  0  0
 18 19  2  0  0  0
 18 37  1  0  0  0
 19 20  1  0  0  0
 19 38  1  0  0  0
 20 21  1  0  0  0
 20 39  1  0  0  0
 21 22  2  0  0  0
 21 40  1  0  0  0
 22 23  1  0  0  0
 23 24  2  0  0  0
 25 26  1  0  0  0
 25 41  1  0  0  0
 25 42  1  0  0  0
 27 43  1  0  0  0
 27 44  1  0  0  0
 27 45  1  0  0  0
M  END
> <s_m_source_file>
../5edr_ligand.sdf

> <i_m_source_file_index>
1

> <s_epik_input>
W0NIM11uMW5bY0hdW2NIXWMxLWMobmMoYzIzKUMoW0NIM10pKFtDSDNdKU9bQ0gyXTMpbmMyW05IXUM9NE49TkMoQzQ1KT1bQ0hdW0NIMl1bQ0hdPVtDSF01

> <s_epik_cmdline>
J2VwaWtfYXBwJywgJy1pbWFlJywgJ2xpZ2FuZF9wcm8ubWFlJywgJy1vbWFlJywgJ2xpZ2FuZF9wcmVwLm1hZScsICctbXMnLCAnMScsICctcGgnLCAnNycsICctcGh0JywgJzAuNScsICctbnQn

> <r_lp_tautomer_probability>
1

> <r_epik_Ionization_Penalty>
  0.0041

> <r_epik_Ionization_Penalty_Charging>
  0.0000

> <r_epik_Ionization_Penalty_Neutral>
  0.0041

> <r_epik_State_Penalty>
 -0.0000

> <r_epik_Charging_Adjusted_Penalty>
0

> <i_epik_Tot_Q>
0

> <i_epik_Tot_abs_Q>
0

$$$$
