5efc_ligand
                    3D
 Schrodinger Suite 2020-3.
 45 47  0  0  1  0            999 V2000
   28.1370   28.9640   24.3620 P   0  0  0  0  0  0
   28.1960   29.5540   22.9710 O   0  0  0  0  0  0
   26.8530   28.1940   24.5820 O   0  5  0  0  0  0
   28.1930   30.0840   25.3770 O   0  0  0  0  0  0
   29.3910   27.9810   24.6190 O   0  0  0  0  0  0
   30.0690   27.1160   23.4360 P   0  0  2  0  0  0
   29.0320   26.2120   22.8090 O   0  0  0  0  0  0
   31.2100   26.2940   23.9940 O   0  5  0  0  0  0
   30.6340   28.1480   22.3240 O   0  0  0  0  0  0
   31.7820   29.2670   22.5480 P   0  0  2  0  0  0
   31.5310   30.4050   21.5880 O   0  0  0  0  0  0
   33.1650   28.6950   22.3310 O   0  5  0  0  0  0
   31.6310   29.8310   24.0550 O   0  0  0  0  0  0
   32.3550   29.3350   25.1610 C   0  0  0  0  0  0
   32.4020   30.4100   26.2480 C   0  0  1  0  0  0
   33.4290   31.3330   25.9250 O   0  0  0  0  0  0
   31.1170   31.2160   26.3460 C   0  0  1  0  0  0
   30.8610   31.4660   27.7080 O   0  0  0  0  0  0
   31.4220   32.5460   25.6920 C   0  0  1  0  0  0
   30.8040   33.5930   26.4120 O   0  0  0  0  0  0
   32.9330   32.6550   25.8010 C   0  0  2  0  0  0
   33.5700   33.2840   24.6240 N   0  0  0  0  0  0
   33.2460   33.1340   23.2990 C   0  0  0  0  0  0
   34.1090   33.8660   22.5540 N   0  0  0  0  0  0
   34.9780   34.4860   23.3880 C   0  0  0  0  0  0
   36.0500   35.3370   23.1650 C   0  0  0  0  0  0
   36.3540   35.6750   22.0190 O   0  0  0  0  0  0
   36.7680   35.8010   24.2450 N   0  3  0  0  0  0
   36.4320   35.4190   25.5250 C   0  0  0  0  0  0
   37.1250   35.8610   26.5710 N   0  0  0  0  0  0
   35.3650   34.5760   25.7360 N   0  0  0  0  0  0
   34.6550   34.1130   24.6820 C   0  0  0  0  0  0
   27.4217   30.8682   25.3738 H   0  0  0  0  0  0
   31.8576   28.4347   25.5509 H   0  0  0  0  0  0
   33.3779   29.0813   24.8457 H   0  0  0  0  0  0
   32.6261   29.9296   27.2118 H   0  0  0  0  0  0
   30.2322   30.7027   25.9414 H   0  0  0  0  0  0
   30.6140   30.6334   28.3831 H   0  0  0  0  0  0
   31.0190   32.6653   24.6755 H   0  0  0  0  0  0
   29.7069   33.6679   26.4408 H   0  0  0  0  0  0
   33.2175   33.2586   26.6755 H   0  0  0  0  0  0
   32.4291   32.5262   22.9100 H   0  0  0  0  0  0
   37.9805   36.5354   26.4187 H   0  0  0  0  0  0
   36.8425   35.5521   27.5882 H   0  0  0  0  0  0
   37.6174   36.4823   24.0890 H   0  0  0  0  0  0
  1  2  2  0  0  0
  1  3  1  0  0  0
  1  4  1  0  0  0
  1  5  1  0  0  0
  4 33  1  0  0  0
  5  6  1  0  0  0
  6  7  2  0  0  0
  6  8  1  0  0  0
  6  9  1  0  0  0
  9 10  1  0  0  0
 10 11  2  0  0  0
 10 12  1  0  0  0
 10 13  1  0  0  0
 13 14  1  0  0  0
 14 15  1  0  0  0
 14 34  1  0  0  0
 14 35  1  0  0  0
 15 16  1  0  0  0
 15 17  1  0  0  0
 15 36  1  0  0  0
 16 21  1  0  0  0
 17 18  1  0  0  0
 17 19  1  0  0  0
 17 37  1  0  0  0
 18 38  1  0  0  0
 19 20  1  0  0  0
 19 21  1  0  0  0
 19 39  1  0  0  0
 20 40  1  0  0  0
 21 22  1  0  0  0
 21 41  1  0  0  0
 22 23  1  0  0  0
 22 32  1  0  0  0
 23 24  2  0  0  0
 23 42  1  0  0  0
 24 25  1  0  0  0
 25 26  1  0  0  0
 25 32  2  0  0  0
 26 27  2  0  0  0
 26 28  1  0  0  0
 28 29  1  0  0  0
 28 45  1  0  0  0
 29 30  1  0  0  0
 29 31  2  0  0  0
 30 43  1  0  0  0
 30 44  1  0  0  0
 31 32  1  0  0  0
M  CHG  4   3  -1   8  -1  12  -1  28   1
M  END
> <s_m_source_file>
../5efc_ligand.sdf

> <i_m_source_file_index>
1

> <s_epik_input>
Tz1QKFtPSF0pKFtPSF0pT1tQQF0oPU8pKFtPSF0pT1tQQF0oPU8pKFtPSF0pT1tDSDJdW0NASF0xT1tDQEhdKFtDQEhdKFtPSF0pW0NAQEhdMVtPSF0pbihbY0hdbjIpYyhjMjMpW25IXWMoPU5cW0hdKVxbbkhdYzM9Tw==

> <s_epik_cmdline>
J2VwaWtfYXBwJywgJy1pbWFlJywgJ2xpZ2FuZF9wcm8ubWFlJywgJy1vbWFlJywgJ2xpZ2FuZF9wcmVwLm1hZScsICctbXMnLCAnMScsICctcGgnLCAnNycsICctcGh0JywgJzAuNScsICctbnQn

> <r_lp_tautomer_probability>
4.999975000125e-06

> <r_epik_Ionization_Penalty>
  3.6149

> <r_epik_Ionization_Penalty_Charging>
  2.3889

> <r_epik_Ionization_Penalty_Neutral>
  1.2259

> <r_epik_State_Penalty>
  0.0136

> <r_epik_Charging_Adjusted_Penalty>
2.40246252490279

> <i_epik_Tot_Q>
-2

> <i_epik_Tot_abs_Q>
4

> <s_epik_Chemistry_Notes>
This compound has an imine and may undergo hydrolysis. This compound contains an acetal/aminal-like group ( X-CH(R)-Y where X, Y are N, S, or O) that may be acid/base labile, releasing an aldehyde.

$$$$
