5egm_ligand
                    3D
 Schrodinger Suite 2020-3.
 65 71  0  0  1  0            999 V2000
  -13.2820  -39.0900  -11.2380 Cl  0  0  0  0  0  0
  -14.6290  -40.1850  -11.1740 C   0  0  0  0  0  0
  -14.5260  -41.2870  -10.3410 C   0  0  0  0  0  0
  -15.5700  -42.2140  -10.3010 C   0  0  0  0  0  0
  -15.4580  -43.3800   -9.4780 N   0  0  0  0  0  0
  -14.8610  -43.4900   -8.2620 C   0  0  0  0  0  0
  -15.0050  -44.6920   -7.7810 N   0  0  0  0  0  0
  -15.7120  -45.4250   -8.7260 N   0  0  0  0  0  0
  -15.9580  -44.6210   -9.7220 C   0  0  0  0  0  0
  -16.6950  -42.0250  -11.0860 C   0  0  0  0  0  0
  -16.7900  -40.9210  -11.9090 C   0  0  0  0  0  0
  -15.7560  -39.9830  -11.9770 C   0  0  0  0  0  0
  -15.9080  -38.8960  -12.9860 C   0  0  0  0  0  0
  -16.2330  -39.1610  -14.1430 O   0  0  0  0  0  0
  -15.7610  -37.6310  -12.5390 N   0  0  0  0  0  0
  -15.8390  -36.4360  -13.3980 C   0  0  2  0  0  0
  -15.4040  -35.2520  -12.4700 C   0  0  0  0  0  0
  -14.0000  -35.4440  -12.0340 N   0  0  0  0  0  0
  -13.4380  -34.9870  -10.8350 C   0  0  0  0  0  0
  -14.0370  -34.2670   -9.8060 C   0  0  0  0  0  0
  -13.2510  -33.9500   -8.7050 C   0  0  0  0  0  0
  -17.2640  -36.2170  -13.9350 C   0  0  0  0  0  0
  -18.3680  -36.7970  -13.3110 C   0  0  0  0  0  0
  -19.6540  -36.5420  -13.7610 C   0  0  0  0  0  0
  -19.8600  -35.7050  -14.8350 C   0  0  0  0  0  0
  -18.7790  -35.1220  -15.4670 C   0  0  0  0  0  0
  -17.4910  -35.3760  -15.0230 C   0  0  0  0  0  0
  -14.7830  -36.5150  -14.5220 C   0  0  0  0  0  0
  -13.3690  -36.8440  -14.0180 C   0  0  0  0  0  0
  -13.0550  -36.1600  -12.7160 C   0  0  0  0  0  0
  -11.8580  -36.1880  -11.9920 C   0  0  0  0  0  0
  -12.1240  -35.4070  -10.7850 C   0  0  0  0  0  0
  -11.3640  -35.0570   -9.6720 C   0  0  0  0  0  0
  -11.9070  -34.3260   -8.6260 C   0  0  0  0  0  0
  -11.0670  -33.9650   -7.4200 C   0  0  0  0  0  0
  -10.6130  -36.8490  -12.3430 C   0  0  0  0  0  0
  -10.4030  -37.6050  -13.4310 N   0  0  0  0  0  0
   -9.1100  -37.9670  -13.3870 N   0  3  0  0  0  0
   -8.5500  -37.4520  -12.3220 N   0  0  0  0  0  0
   -9.4650  -36.7500  -11.6550 N   0  3  0  0  0  0
  -13.6394  -41.4292   -9.7231 H   0  0  0  0  0  0
  -14.3327  -42.6812   -7.7571 H   0  0  0  0  0  0
  -16.4925  -44.9051  -10.6285 H   0  0  0  0  0  0
  -17.5080  -42.7503  -11.0539 H   0  0  0  0  0  0
  -17.6848  -40.7785  -12.5150 H   0  0  0  0  0  0
  -15.5724  -37.5219  -11.4608 H   0  0  0  0  0  0
  -15.4866  -34.3041  -13.0220 H   0  0  0  0  0  0
  -16.0578  -35.2197  -11.5860 H   0  0  0  0  0  0
  -15.0824  -33.9634   -9.8615 H   0  0  0  0  0  0
  -13.6947  -33.3927   -7.8800 H   0  0  0  0  0  0
  -18.2177  -37.4594  -12.4585 H   0  0  0  0  0  0
  -20.5054  -37.0057  -13.2629 H   0  0  0  0  0  0
  -20.8724  -35.5033  -15.1850 H   0  0  0  0  0  0
  -18.9395  -34.4599  -16.3179 H   0  0  0  0  0  0
  -16.6452  -34.9124  -15.5308 H   0  0  0  0  0  0
  -15.0671  -37.3008  -15.2374 H   0  0  0  0  0  0
  -14.7285  -35.5475  -15.0426 H   0  0  0  0  0  0
  -13.2780  -37.9293  -13.8637 H   0  0  0  0  0  0
  -12.6288  -36.5162  -14.7627 H   0  0  0  0  0  0
  -10.3194  -35.3643   -9.6218 H   0  0  0  0  0  0
  -11.6762  -33.3887   -6.7081 H   0  0  0  0  0  0
  -10.2065  -33.3593   -7.7405 H   0  0  0  0  0  0
  -10.7078  -34.8846   -6.9348 H   0  0  0  0  0  0
   -8.7279  -38.5453  -14.1078 H   0  0  0  0  0  0
   -9.1905  -36.2335  -10.7234 H   0  0  0  0  0  0
  1  2  1  0  0  0
  2  3  2  0  0  0
  2 12  1  0  0  0
  3  4  1  0  0  0
  3 41  1  0  0  0
  4  5  1  0  0  0
  4 10  2  0  0  0
  5  6  1  0  0  0
  5  9  1  0  0  0
  6  7  2  0  0  0
  6 42  1  0  0  0
  7  8  1  0  0  0
  8  9  2  0  0  0
  9 43  1  0  0  0
 10 11  1  0  0  0
 10 44  1  0  0  0
 11 12  2  0  0  0
 11 45  1  0  0  0
 12 13  1  0  0  0
 13 14  2  0  0  0
 13 15  1  0  0  0
 15 16  1  0  0  0
 15 46  1  0  0  0
 16 17  1  0  0  0
 16 22  1  0  0  0
 16 28  1  0  0  0
 17 18  1  0  0  0
 17 47  1  0  0  0
 17 48  1  0  0  0
 18 19  1  0  0  0
 18 30  1  0  0  0
 19 20  2  0  0  0
 19 32  1  0  0  0
 20 21  1  0  0  0
 20 49  1  0  0  0
 21 34  2  0  0  0
 21 50  1  0  0  0
 22 23  2  0  0  0
 22 27  1  0  0  0
 23 24  1  0  0  0
 23 51  1  0  0  0
 24 25  2  0  0  0
 24 52  1  0  0  0
 25 26  1  0  0  0
 25 53  1  0  0  0
 26 27  2  0  0  0
 26 54  1  0  0  0
 27 55  1  0  0  0
 28 29  1  0  0  0
 28 56  1  0  0  0
 28 57  1  0  0  0
 29 30  1  0  0  0
 29 58  1  0  0  0
 29 59  1  0  0  0
 30 31  2  0  0  0
 31 32  1  0  0  0
 31 36  1  0  0  0
 32 33  2  0  0  0
 33 34  1  0  0  0
 33 60  1  0  0  0
 34 35  1  0  0  0
 35 61  1  0  0  0
 35 62  1  0  0  0
 35 63  1  0  0  0
 36 37  2  0  0  0
 36 40  1  0  0  0
 37 38  1  0  0  0
 38 39  1  0  0  0
 38 64  1  0  0  0
 39 40  2  0  0  0
 40 65  1  0  0  0
M  CHG  2  38   1  40   1
M  END
> <s_m_source_file>
../5egm_ligand.sdf

> <i_m_source_file_index>
1

> <s_epik_input>
W2NIXTFubltjSF1uMS1jKFtjSF1jMkNsKVtjSF1bY0hdYzJDKD1PKVtOSF1bQ0BdKFtDSDJdMykoYzRbY0hdW2NIXVtjSF1bY0hdW2NIXTQpW0NIMl1bQ0gyXWM1YygtYzZuW25IXW5uNiljKGM3bjM1KVtjSF1jKFtDSDNdKVtjSF1bY0hdNw==

> <s_epik_cmdline>
J2VwaWtfYXBwJywgJy1pbWFlJywgJ2xpZ2FuZF9wcm8ubWFlJywgJy1vbWFlJywgJ2xpZ2FuZF9wcmVwLm1hZScsICctbXMnLCAnMScsICctcGgnLCAnNycsICctcGh0JywgJzAuNScsICctbnQn

> <r_epik_Ionization_Penalty>
 13.1755

> <r_epik_Ionization_Penalty_Charging>
 13.1754

> <r_epik_Ionization_Penalty_Neutral>
  0.0000

> <r_epik_State_Penalty>
  0.0112

> <r_epik_Charging_Adjusted_Penalty>
13.1866838808088

> <i_epik_Tot_Q>
2

> <i_epik_Tot_abs_Q>
2

> <s_epik_Chemistry_Notes>
This compound has an imine and may undergo hydrolysis.

$$$$
