5ek0_ligand
                    3D
 Schrodinger Suite 2020-3.
 59 63  0  0  1  0            999 V2000
  -86.1010   -9.7910  -15.5780 C   0  0  0  0  0  0
  -89.2980  -15.1350  -15.7700 C   0  0  0  0  0  0
  -87.1080  -10.4710  -16.5260 C   0  0  1  0  0  0
  -87.3200   -9.0370  -17.0470 C   0  0  0  0  0  0
  -86.7460  -12.8530  -17.3820 C   0  0  0  0  0  0
  -86.0800  -13.3900  -18.4450 C   0  0  0  0  0  0
  -85.5260  -12.3460  -19.1800 C   0  0  0  0  0  0
  -87.4620  -13.6650  -16.3630 C   0  0  0  0  0  0
  -88.6420  -14.3440  -16.7080 C   0  0  0  0  0  0
  -86.7830   -8.4930  -15.7770 N   0  3  1  0  0  0
  -88.1550   -6.7190  -14.6990 C   0  0  0  0  0  0
  -87.8130   -8.2110  -14.7490 C   0  0  0  0  0  0
  -86.5810  -11.4860  -17.4550 N   0  0  0  0  0  0
  -85.8160  -11.2150  -18.6000 N   0  0  0  0  0  0
  -88.7920  -15.2410  -14.4780 C   0  0  0  0  0  0
  -87.6180  -14.6000  -14.1260 C   0  0  0  0  0  0
  -86.9360  -13.8260  -15.0630 C   0  0  0  0  0  0
  -85.7930  -13.1800  -14.7010 O   0  0  0  0  0  0
  -84.6450  -13.8720  -14.4520 C   0  0  0  0  0  0
  -84.3140  -15.0020  -15.2070 C   0  0  0  0  0  0
  -83.1490  -15.7010  -14.9410 C   0  0  0  0  0  0
  -82.2710  -15.2550  -13.9580 C   0  0  0  0  0  0
  -82.5770  -14.1380  -13.1920 C   0  0  0  0  0  0
  -83.7640  -13.4290  -13.4390 C   0  0  0  0  0  0
  -84.0640  -12.2590  -12.6680 C   0  0  0  0  0  0
  -84.3010  -11.3320  -12.0600 N   0  0  0  0  0  0
  -80.8190  -16.2040  -13.6530 S   0  0  0  0  0  0
  -80.2670  -16.5120  -14.9230 O   0  0  0  0  0  0
  -80.0520  -15.5500  -12.6480 O   0  0  0  0  0  0
  -81.4110  -17.6280  -13.0320 N   0  5  0  0  0  0
  -81.7930  -17.7960  -11.7040 C   0  0  0  0  0  0
  -81.9270  -18.9420  -11.0700 N   0  0  0  0  0  0
  -82.2800  -18.9100   -9.8090 C   0  0  0  0  0  0
  -82.4680  -17.7450   -9.2750 N   0  0  0  0  0  0
  -82.1930  -16.6140  -10.5140 S   0  0  0  0  0  0
  -90.5840  -15.8480  -16.1290 C   0  0  0  0  0  0
  -91.5780  -14.8930  -16.3720 F   0  0  0  0  0  0
  -90.9860  -16.7010  -15.0920 F   0  0  0  0  0  0
  -90.4060  -16.6240  -17.2770 F   0  0  0  0  0  0
  -86.1593  -10.2591  -14.5843 H   0  0  0  0  0  0
  -85.0834   -9.9077  -15.9791 H   0  0  0  0  0  0
  -87.9200  -11.1460  -16.2177 H   0  0  0  0  0  0
  -86.7306   -8.8892  -17.9639 H   0  0  0  0  0  0
  -88.3863   -8.8808  -17.2674 H   0  0  0  0  0  0
  -85.9964  -14.4515  -18.6779 H   0  0  0  0  0  0
  -84.9429  -12.4563  -20.0943 H   0  0  0  0  0  0
  -89.0461  -14.2508  -17.7160 H   0  0  0  0  0  0
  -86.2404   -7.5365  -15.7506 H   0  0  0  0  0  0
  -88.9201   -6.5438  -13.9283 H   0  0  0  0  0  0
  -88.5406   -6.3982  -15.6780 H   0  0  0  0  0  0
  -87.2500   -6.1434  -14.4548 H   0  0  0  0  0  0
  -88.7292   -8.7724  -14.9843 H   0  0  0  0  0  0
  -87.4387   -8.5176  -13.7611 H   0  0  0  0  0  0
  -89.3260  -15.8349  -13.7362 H   0  0  0  0  0  0
  -87.2256  -14.7004  -13.1141 H   0  0  0  0  0  0
  -84.9755  -15.3333  -16.0074 H   0  0  0  0  0  0
  -82.9184  -16.6052  -15.5044 H   0  0  0  0  0  0
  -81.8992  -13.8129  -12.4027 H   0  0  0  0  0  0
  -82.4102  -19.8260   -9.2328 H   0  0  0  0  0  0
  1  3  1  0  0  0
  1 10  1  0  0  0
  1 40  1  0  0  0
  1 41  1  0  0  0
  2  9  2  0  0  0
  2 15  1  0  0  0
  2 36  1  0  0  0
  3  4  1  0  0  0
  3 13  1  0  0  0
  3 42  1  0  0  0
  4 10  1  0  0  0
  4 43  1  0  0  0
  4 44  1  0  0  0
  5  6  2  0  0  0
  5  8  1  0  0  0
  5 13  1  0  0  0
  6  7  1  0  0  0
  6 45  1  0  0  0
  7 14  2  0  0  0
  7 46  1  0  0  0
  8  9  1  0  0  0
  8 17  2  0  0  0
  9 47  1  0  0  0
 10 12  1  0  0  0
 10 48  1  0  0  0
 11 12  1  0  0  0
 11 49  1  0  0  0
 11 50  1  0  0  0
 11 51  1  0  0  0
 12 52  1  0  0  0
 12 53  1  0  0  0
 13 14  1  0  0  0
 15 16  2  0  0  0
 15 54  1  0  0  0
 16 17  1  0  0  0
 16 55  1  0  0  0
 17 18  1  0  0  0
 18 19  1  0  0  0
 19 20  2  0  0  0
 19 24  1  0  0  0
 20 21  1  0  0  0
 20 56  1  0  0  0
 21 22  2  0  0  0
 21 57  1  0  0  0
 22 23  1  0  0  0
 22 27  1  0  0  0
 23 24  2  0  0  0
 23 58  1  0  0  0
 24 25  1  0  0  0
 25 26  3  0  0  0
 27 28  2  0  0  0
 27 29  2  0  0  0
 27 30  1  0  0  0
 30 31  1  0  0  0
 31 32  2  0  0  0
 31 35  1  0  0  0
 32 33  1  0  0  0
 33 34  2  0  0  0
 33 59  1  0  0  0
 34 35  1  0  0  0
 36 37  1  0  0  0
 36 38  1  0  0  0
 36 39  1  0  0  0
M  CHG  2  10   1  30  -1
M  END
> <s_m_source_file>
../5ek0_ligand.sdf

> <i_m_source_file_index>
1

> <s_epik_input>
W0NIM11bQ0gyXVtOQEgrXShbQ0gyXTEpW0NIMl1bQ0BASF0xbjJuW2NIXVtjSF1jMi1jKFtjSF1jM0MoRikoRilGKWMoW2NIXVtjSF0zKU9jNFtjSF1bY0hdYyhbY0hdYzRDI04pUyg9TykoPU8pW05IXWM1bltjSF1uczU=

> <s_epik_cmdline>
J2VwaWtfYXBwJywgJy1pbWFlJywgJ2xpZ2FuZF9wcm8ubWFlJywgJy1vbWFlJywgJ2xpZ2FuZF9wcmVwLm1hZScsICctbXMnLCAnMScsICctcGgnLCAnNycsICctcGh0JywgJzAuNScsICctbnQn

> <r_lp_tautomer_probability>
1

> <r_epik_Ionization_Penalty>
  0.0634

> <r_epik_Ionization_Penalty_Charging>
  0.0634

> <r_epik_Ionization_Penalty_Neutral>
  0.0000

> <r_epik_State_Penalty>
 -0.0000

> <r_epik_Charging_Adjusted_Penalty>
0.063446630178612

> <i_epik_Tot_Q>
0

> <i_epik_Tot_abs_Q>
2

$$$$
