5em5_ligand
                    3D
 Schrodinger Suite 2020-3.
 62 65  0  0  1  0            999 V2000
  -53.1760   -0.1460  -15.6080 C   0  0  0  0  0  0
  -50.9400    0.9570  -15.8280 C   0  0  0  0  0  0
  -53.4590    1.4910  -20.2650 C   0  0  0  0  0  0
  -50.7720    0.8490  -14.2950 C   0  0  0  0  0  0
  -52.6830    1.1350  -17.5790 C   0  0  0  0  0  0
  -51.9070    0.5980  -18.6240 C   0  0  0  0  0  0
  -52.2860    0.7820  -19.9530 C   0  0  0  0  0  0
  -54.2340    1.9980  -19.2220 C   0  0  0  0  0  0
  -53.8570    1.8260  -17.9010 C   0  0  0  0  0  0
  -51.6020   -0.2580  -13.7650 N   0  3  0  0  0  0
  -53.0350   -0.1100  -14.0810 C   0  0  0  0  0  0
  -51.3960   -0.4830  -12.3270 C   0  0  0  0  0  0
  -52.3770    0.9530  -16.2090 N   0  0  0  0  0  0
  -53.9660    1.6930  -21.5690 N   0  0  0  0  0  0
  -53.8600    0.8780  -22.6580 C   0  0  0  0  0  0
  -53.2020   -0.1460  -22.5840 O   0  0  0  0  0  0
  -54.5720    1.1990  -23.9260 C   0  0  0  0  0  0
  -54.3120    0.4830  -25.1430 C   0  0  0  0  0  0
  -55.0540    0.8310  -26.3050 C   0  0  0  0  0  0
  -55.9980    1.7960  -26.2800 C   0  0  0  0  0  0
  -56.2650    2.4610  -25.1300 N   0  0  0  0  0  0
  -55.6060    2.2070  -23.9720 C   0  0  0  0  0  0
  -55.9300    2.8740  -22.9960 O   0  0  0  0  0  0
  -53.3470   -0.5210  -25.2040 N   0  0  0  0  0  0
  -53.1530   -1.4860  -26.3050 C   0  0  0  0  0  0
  -51.8700   -1.1600  -27.0840 C   0  0  0  0  0  0
  -52.0730    0.1420  -27.8180 C   0  0  0  0  0  0
  -51.8040    1.3430  -27.1620 C   0  0  0  0  0  0
  -52.0640    2.5580  -27.7690 C   0  0  0  0  0  0
  -52.5450    2.5620  -29.0690 C   0  0  0  0  0  0
  -52.7570    1.3690  -29.7580 C   0  0  0  0  0  0
  -52.5530    0.1490  -29.1250 C   0  0  0  0  0  0
  -52.8310    4.0860  -29.8300 Cl  0  0  0  0  0  0
  -52.8115   -1.1121  -15.9872 H   0  0  0  0  0  0
  -54.2340   -0.0203  -15.8816 H   0  0  0  0  0  0
  -50.4843    1.8936  -16.1817 H   0  0  0  0  0  0
  -50.4447    0.1025  -16.3123 H   0  0  0  0  0  0
  -49.7164    0.6540  -14.0547 H   0  0  0  0  0  0
  -51.0870    1.7919  -13.8243 H   0  0  0  0  0  0
  -51.0033    0.0343  -18.3922 H   0  0  0  0  0  0
  -51.6697    0.3740  -20.7541 H   0  0  0  0  0  0
  -55.1522    2.5389  -19.4509 H   0  0  0  0  0  0
  -54.4801    2.2324  -17.1043 H   0  0  0  0  0  0
  -51.2534   -1.1625  -14.2849 H   0  0  0  0  0  0
  -53.4157    0.8492  -13.7002 H   0  0  0  0  0  0
  -53.6133   -0.9352  -13.6398 H   0  0  0  0  0  0
  -50.3203   -0.5893  -12.1229 H   0  0  0  0  0  0
  -51.9197   -1.4006  -12.0207 H   0  0  0  0  0  0
  -51.7938    0.3725  -11.7614 H   0  0  0  0  0  0
  -54.5301    2.6076  -21.8042 H   0  0  0  0  0  0
  -54.8558    0.3056  -27.2392 H   0  0  0  0  0  0
  -56.5477    2.0411  -27.1888 H   0  0  0  0  0  0
  -57.0415    3.2400  -25.1127 H   0  0  0  0  0  0
  -52.6917   -0.5549  -24.3211 H   0  0  0  0  0  0
  -53.0724   -2.5023  -25.8919 H   0  0  0  0  0  0
  -54.0110   -1.4363  -26.9916 H   0  0  0  0  0  0
  -51.0282   -1.0677  -26.3819 H   0  0  0  0  0  0
  -51.6619   -1.9670  -27.8019 H   0  0  0  0  0  0
  -51.3829    1.3237  -26.1568 H   0  0  0  0  0  0
  -51.8942    3.4935  -27.2360 H   0  0  0  0  0  0
  -53.0841    1.3932  -30.7975 H   0  0  0  0  0  0
  -52.7651   -0.7865  -29.6427 H   0  0  0  0  0  0
  1 11  1  0  0  0
  1 13  1  0  0  0
  1 34  1  0  0  0
  1 35  1  0  0  0
  2  4  1  0  0  0
  2 13  1  0  0  0
  2 36  1  0  0  0
  2 37  1  0  0  0
  3  7  2  0  0  0
  3  8  1  0  0  0
  3 14  1  0  0  0
  4 10  1  0  0  0
  4 38  1  0  0  0
  4 39  1  0  0  0
  5  6  2  0  0  0
  5  9  1  0  0  0
  5 13  1  0  0  0
  6  7  1  0  0  0
  6 40  1  0  0  0
  7 41  1  0  0  0
  8  9  2  0  0  0
  8 42  1  0  0  0
  9 43  1  0  0  0
 10 11  1  0  0  0
 10 12  1  0  0  0
 10 44  1  0  0  0
 11 45  1  0  0  0
 11 46  1  0  0  0
 12 47  1  0  0  0
 12 48  1  0  0  0
 12 49  1  0  0  0
 14 15  1  0  0  0
 14 50  1  0  0  0
 15 16  2  0  0  0
 15 17  1  0  0  0
 17 18  2  0  0  0
 17 22  1  0  0  0
 18 19  1  0  0  0
 18 24  1  0  0  0
 19 20  2  0  0  0
 19 51  1  0  0  0
 20 21  1  0  0  0
 20 52  1  0  0  0
 21 22  1  0  0  0
 21 53  1  0  0  0
 22 23  2  0  0  0
 24 25  1  0  0  0
 24 54  1  0  0  0
 25 26  1  0  0  0
 25 55  1  0  0  0
 25 56  1  0  0  0
 26 27  1  0  0  0
 26 57  1  0  0  0
 26 58  1  0  0  0
 27 28  2  0  0  0
 27 32  1  0  0  0
 28 29  1  0  0  0
 28 59  1  0  0  0
 29 30  2  0  0  0
 29 60  1  0  0  0
 30 31  1  0  0  0
 30 33  1  0  0  0
 31 32  2  0  0  0
 31 61  1  0  0  0
 32 62  1  0  0  0
M  CHG  1  10   1
M  END
> <s_m_source_file>
../5em5_ligand.sdf

> <i_m_source_file_index>
1

> <s_epik_input>
W0NIM11bTkgrXTFbQ0gyXVtDSDJdTihbQ0gyXVtDSDJdMSljKFtjSF1bY0hdMilbY0hdW2NIXWMyW05IXUMoPU8pYzNjKFtjSF1bY0hdW25IXWMzPU8pW05IXVtDSDJdW0NIMl1jNFtjSF1bY0hdYyhDbClbY0hdW2NIXTQ=

> <s_epik_cmdline>
J2VwaWtfYXBwJywgJy1pbWFlJywgJ2xpZ2FuZF9wcm8ubWFlJywgJy1vbWFlJywgJ2xpZ2FuZF9wcmVwLm1hZScsICctbXMnLCAnMScsICctcGgnLCAnNycsICctcGh0JywgJzAuNScsICctbnQn

> <r_lp_tautomer_probability>
0.999206294981429

> <r_epik_Ionization_Penalty>
  0.0649

> <r_epik_Ionization_Penalty_Charging>
  0.0647

> <r_epik_Ionization_Penalty_Neutral>
  0.0001

> <r_epik_State_Penalty>
  0.0564

> <r_epik_Charging_Adjusted_Penalty>
0.121171278795786

> <i_epik_Tot_Q>
1

> <i_epik_Tot_abs_Q>
1

$$$$
