5em6_ligand
                    3D
 Schrodinger Suite 2020-3.
 56 59  0  0  1  0            999 V2000
  -51.3240   -0.6650  -14.6890 C   0  0  0  0  0  0
  -49.0200    0.0670  -15.4110 C   0  0  0  0  0  0
  -52.1820    0.7450  -19.3360 C   0  0  0  0  0  0
  -48.5470   -0.1230  -13.9550 C   0  0  0  0  0  0
  -51.0250    0.4280  -16.7900 C   0  0  0  0  0  0
  -52.1670    1.2230  -16.9600 C   0  0  0  0  0  0
  -52.7360    1.3720  -18.2150 C   0  0  0  0  0  0
  -51.0420   -0.0540  -19.1790 C   0  0  0  0  0  0
  -50.4850   -0.2270  -17.9130 C   0  0  0  0  0  0
  -49.3990   -1.1170  -13.2580 N   0  3  0  0  0  0
  -50.8310   -0.7490  -13.2360 C   0  0  0  0  0  0
  -48.9220   -1.4040  -11.8970 C   0  0  0  0  0  0
  -50.4950    0.2780  -15.4880 N   0  0  0  0  0  0
  -52.8520    0.9630  -20.5610 N   0  0  0  0  0  0
  -52.8490    0.2430  -21.7180 C   0  0  0  0  0  0
  -52.1750   -0.7740  -21.8020 O   0  0  0  0  0  0
  -53.7430    0.6480  -22.8410 C   0  0  0  0  0  0
  -53.6610    0.0560  -24.1550 C   0  0  0  0  0  0
  -54.5880    0.4810  -25.1440 C   0  0  0  0  0  0
  -55.5420    1.4020  -24.8820 C   0  0  0  0  0  0
  -55.6210    1.9570  -23.6480 N   0  0  0  0  0  0
  -54.7850    1.6300  -22.6340 C   0  0  0  0  0  0
  -54.9620    2.2160  -21.5690 O   0  0  0  0  0  0
  -52.6980   -0.9070  -24.4660 N   0  0  0  0  0  0
  -52.4780   -1.6100  -25.6660 C   0  0  0  0  0  0
  -51.5140   -2.6400  -25.6690 C   0  0  0  0  0  0
  -51.2730   -3.3470  -26.8490 C   0  0  0  0  0  0
  -51.9450   -3.0290  -27.9540 N   0  0  0  0  0  0
  -52.8380   -2.0430  -27.9370 C   0  0  0  0  0  0
  -53.1030   -1.3430  -26.8280 N   0  0  0  0  0  0
  -53.5160   -1.7530  -29.1000 N   0  0  0  0  0  0
  -51.2673   -1.6605  -15.1536 H   0  0  0  0  0  0
  -52.3660   -0.3127  -14.7029 H   0  0  0  0  0  0
  -48.5211    0.9451  -15.8469 H   0  0  0  0  0  0
  -48.7668   -0.8278  -15.9985 H   0  0  0  0  0  0
  -47.5062   -0.4790  -13.9511 H   0  0  0  0  0  0
  -48.6081    0.8369  -13.4214 H   0  0  0  0  0  0
  -52.6098    1.7266  -16.1007 H   0  0  0  0  0  0
  -53.6285    1.9870  -18.3302 H   0  0  0  0  0  0
  -50.5916   -0.5393  -20.0449 H   0  0  0  0  0  0
  -49.6196   -0.8783  -17.7909 H   0  0  0  0  0  0
  -49.3104   -2.0413  -13.8478 H   0  0  0  0  0  0
  -50.9642    0.2271  -12.7466 H   0  0  0  0  0  0
  -51.4104   -1.5122  -12.6957 H   0  0  0  0  0  0
  -47.8566   -1.6756  -11.9315 H   0  0  0  0  0  0
  -49.4998   -2.2392  -11.4745 H   0  0  0  0  0  0
  -49.0527   -0.5119  -11.2669 H   0  0  0  0  0  0
  -53.5054    1.8396  -20.6821 H   0  0  0  0  0  0
  -54.5282    0.0515  -26.1440 H   0  0  0  0  0  0
  -56.2454    1.6974  -25.6605 H   0  0  0  0  0  0
  -56.3917    2.7117  -23.4327 H   0  0  0  0  0  0
  -51.9636   -1.2154  -23.7074 H   0  0  0  0  0  0
  -50.9631   -2.8814  -24.7600 H   0  0  0  0  0  0
  -50.5400   -4.1535  -26.8655 H   0  0  0  0  0  0
  -53.3047   -2.3233  -30.0166 H   0  0  0  0  0  0
  -54.2689   -0.9511  -29.1124 H   0  0  0  0  0  0
  1 11  1  0  0  0
  1 13  1  0  0  0
  1 32  1  0  0  0
  1 33  1  0  0  0
  2  4  1  0  0  0
  2 13  1  0  0  0
  2 34  1  0  0  0
  2 35  1  0  0  0
  3  7  2  0  0  0
  3  8  1  0  0  0
  3 14  1  0  0  0
  4 10  1  0  0  0
  4 36  1  0  0  0
  4 37  1  0  0  0
  5  6  2  0  0  0
  5  9  1  0  0  0
  5 13  1  0  0  0
  6  7  1  0  0  0
  6 38  1  0  0  0
  7 39  1  0  0  0
  8  9  2  0  0  0
  8 40  1  0  0  0
  9 41  1  0  0  0
 10 11  1  0  0  0
 10 12  1  0  0  0
 10 42  1  0  0  0
 11 43  1  0  0  0
 11 44  1  0  0  0
 12 45  1  0  0  0
 12 46  1  0  0  0
 12 47  1  0  0  0
 14 15  1  0  0  0
 14 48  1  0  0  0
 15 16  2  0  0  0
 15 17  1  0  0  0
 17 18  2  0  0  0
 17 22  1  0  0  0
 18 19  1  0  0  0
 18 24  1  0  0  0
 19 20  2  0  0  0
 19 49  1  0  0  0
 20 21  1  0  0  0
 20 50  1  0  0  0
 21 22  1  0  0  0
 21 51  1  0  0  0
 22 23  2  0  0  0
 24 25  1  0  0  0
 24 52  1  0  0  0
 25 26  2  0  0  0
 25 30  1  0  0  0
 26 27  1  0  0  0
 26 53  1  0  0  0
 27 28  2  0  0  0
 27 54  1  0  0  0
 28 29  1  0  0  0
 29 30  2  0  0  0
 29 31  1  0  0  0
 31 55  1  0  0  0
 31 56  1  0  0  0
M  CHG  1  10   1
M  END
> <s_m_source_file>
../5em6_ligand.sdf

> <i_m_source_file_index>
1

> <s_epik_input>
W0NIM11bTkgrXTFbQ0gyXVtDSDJdTihbQ0gyXVtDSDJdMSljKFtjSF1bY0hdMilbY0hdW2NIXWMyW05IXUMoPU8pYzNjKFtjSF1bY0hdW25IXWMzPU8pW05IXWM0W2NIXVtjSF1uYyhuNClbTkgyXQ==

> <s_epik_cmdline>
J2VwaWtfYXBwJywgJy1pbWFlJywgJ2xpZ2FuZF9wcm8ubWFlJywgJy1vbWFlJywgJ2xpZ2FuZF9wcmVwLm1hZScsICctbXMnLCAnMScsICctcGgnLCAnNycsICctcGh0JywgJzAuNScsICctbnQn

> <r_lp_tautomer_probability>
1

> <r_epik_Ionization_Penalty>
  0.1886

> <r_epik_Ionization_Penalty_Charging>
  0.0648

> <r_epik_Ionization_Penalty_Neutral>
  0.1239

> <r_epik_State_Penalty>
 -0.0000

> <r_epik_Charging_Adjusted_Penalty>
0.0647516980346479

> <i_epik_Tot_Q>
1

> <i_epik_Tot_abs_Q>
1

$$$$
