5em8_ligand
                    3D
 Schrodinger Suite 2020-3.
 60 63  0  0  1  0            999 V2000
  -52.9050   -0.2090  -14.1220 C   0  0  0  0  0  0
  -50.4370    0.0140  -14.4630 C   0  0  0  0  0  0
  -52.8400    0.6210  -18.9590 C   0  0  0  0  0  0
  -50.2630   -0.0370  -12.9320 C   0  0  0  0  0  0
  -52.0880    0.5140  -16.2410 C   0  0  0  0  0  0
  -51.4460   -0.3010  -17.1950 C   0  0  0  0  0  0
  -51.8120   -0.2420  -18.5380 C   0  0  0  0  0  0
  -53.4830    1.4170  -18.0100 C   0  0  0  0  0  0
  -53.1100    1.3700  -16.6750 C   0  0  0  0  0  0
  -51.3930   -0.7790  -12.3310 N   0  3  0  0  0  0
  -52.6870   -0.1300  -12.6050 C   0  0  0  0  0  0
  -51.2050   -1.0500  -10.8970 C   0  0  0  0  0  0
  -51.8030    0.4690  -14.8500 N   0  0  0  0  0  0
  -53.3190    0.7390  -20.2830 N   0  0  0  0  0  0
  -53.0060    0.0410  -21.4100 C   0  0  0  0  0  0
  -52.1740   -0.8470  -21.3460 O   0  0  0  0  0  0
  -53.7160    0.3280  -22.6990 C   0  0  0  0  0  0
  -53.3650   -0.3260  -23.9390 C   0  0  0  0  0  0
  -54.1050    0.0010  -25.1120 C   0  0  0  0  0  0
  -55.1410    0.8720  -25.0830 C   0  0  0  0  0  0
  -55.4720    1.5000  -23.9240 N   0  0  0  0  0  0
  -54.8160    1.2720  -22.7550 C   0  0  0  0  0  0
  -55.2030    1.9120  -21.7810 O   0  0  0  0  0  0
  -52.3010   -1.2250  -24.0500 N   0  0  0  0  0  0
  -52.3330   -2.5000  -24.6640 C   0  0  0  0  0  0
  -52.6550   -2.6320  -26.0290 C   0  0  0  0  0  0
  -52.6990   -3.8830  -26.6370 C   0  0  0  0  0  0
  -52.3640   -5.0200  -25.9010 C   0  0  0  0  0  0
  -52.0260   -4.9140  -24.5510 C   0  0  0  0  0  0
  -51.9740   -3.6580  -23.9260 C   0  0  0  0  0  0
  -51.6040   -3.5820  -22.6030 O   0  0  0  0  0  0
  -50.2090   -3.4370  -22.2690 C   0  0  0  0  0  0
  -52.9389   -1.2635  -14.4331 H   0  0  0  0  0  0
  -53.8551    0.2806  -14.3819 H   0  0  0  0  0  0
  -49.7052    0.7143  -14.8920 H   0  0  0  0  0  0
  -50.2749   -0.9892  -14.8841 H   0  0  0  0  0  0
  -49.3190   -0.5457  -12.6870 H   0  0  0  0  0  0
  -50.2424    0.9871  -12.5310 H   0  0  0  0  0  0
  -50.6566   -0.9831  -16.8794 H   0  0  0  0  0  0
  -51.2985   -0.8686  -19.2672 H   0  0  0  0  0  0
  -54.2875    2.0832  -18.3215 H   0  0  0  0  0  0
  -53.6190    2.0080  -15.9525 H   0  0  0  0  0  0
  -51.4141   -1.7630  -12.8221 H   0  0  0  0  0  0
  -52.6711    0.9242  -12.2913 H   0  0  0  0  0  0
  -53.5053   -0.6537  -12.0892 H   0  0  0  0  0  0
  -50.2293   -1.5331  -10.7400 H   0  0  0  0  0  0
  -52.0052   -1.7159  -10.5417 H   0  0  0  0  0  0
  -51.2399   -0.1036  -10.3374 H   0  0  0  0  0  0
  -54.0747    1.4996  -20.5287 H   0  0  0  0  0  0
  -53.8293   -0.4630  -26.0590 H   0  0  0  0  0  0
  -55.7108    1.0700  -25.9909 H   0  0  0  0  0  0
  -56.2994    2.2247  -23.9080 H   0  0  0  0  0  0
  -51.3159   -0.9653  -23.6350 H   0  0  0  0  0  0
  -52.8729   -1.7410  -26.6178 H   0  0  0  0  0  0
  -52.9936   -3.9741  -27.6825 H   0  0  0  0  0  0
  -52.3663   -5.9974  -26.3835 H   0  0  0  0  0  0
  -51.8007   -5.8132  -23.9776 H   0  0  0  0  0  0
  -50.0964   -3.3929  -21.1757 H   0  0  0  0  0  0
  -49.8195   -2.5102  -22.7154 H   0  0  0  0  0  0
  -49.6468   -4.2973  -22.6611 H   0  0  0  0  0  0
  1 11  1  0  0  0
  1 13  1  0  0  0
  1 33  1  0  0  0
  1 34  1  0  0  0
  2  4  1  0  0  0
  2 13  1  0  0  0
  2 35  1  0  0  0
  2 36  1  0  0  0
  3  7  2  0  0  0
  3  8  1  0  0  0
  3 14  1  0  0  0
  4 10  1  0  0  0
  4 37  1  0  0  0
  4 38  1  0  0  0
  5  6  2  0  0  0
  5  9  1  0  0  0
  5 13  1  0  0  0
  6  7  1  0  0  0
  6 39  1  0  0  0
  7 40  1  0  0  0
  8  9  2  0  0  0
  8 41  1  0  0  0
  9 42  1  0  0  0
 10 11  1  0  0  0
 10 12  1  0  0  0
 10 43  1  0  0  0
 11 44  1  0  0  0
 11 45  1  0  0  0
 12 46  1  0  0  0
 12 47  1  0  0  0
 12 48  1  0  0  0
 14 15  1  0  0  0
 14 49  1  0  0  0
 15 16  2  0  0  0
 15 17  1  0  0  0
 17 18  2  0  0  0
 17 22  1  0  0  0
 18 19  1  0  0  0
 18 24  1  0  0  0
 19 20  2  0  0  0
 19 50  1  0  0  0
 20 21  1  0  0  0
 20 51  1  0  0  0
 21 22  1  0  0  0
 21 52  1  0  0  0
 22 23  2  0  0  0
 24 25  1  0  0  0
 24 53  1  0  0  0
 25 26  2  0  0  0
 25 30  1  0  0  0
 26 27  1  0  0  0
 26 54  1  0  0  0
 27 28  2  0  0  0
 27 55  1  0  0  0
 28 29  1  0  0  0
 28 56  1  0  0  0
 29 30  2  0  0  0
 29 57  1  0  0  0
 30 31  1  0  0  0
 31 32  1  0  0  0
 32 58  1  0  0  0
 32 59  1  0  0  0
 32 60  1  0  0  0
M  CHG  1  10   1
M  END
> <s_m_source_file>
../5em8_ligand.sdf

> <i_m_source_file_index>
1

> <s_epik_input>
W0NIM11bTkgrXTFbQ0gyXVtDSDJdTihbQ0gyXVtDSDJdMSljKFtjSF1bY0hdMilbY0hdW2NIXWMyW05IXUMoPU8pYzNjKFtjSF1bY0hdW25IXWMzPU8pW05IXWM0W2NIXVtjSF1bY0hdW2NIXWM0T1tDSDNd

> <s_epik_cmdline>
J2VwaWtfYXBwJywgJy1pbWFlJywgJ2xpZ2FuZF9wcm8ubWFlJywgJy1vbWFlJywgJ2xpZ2FuZF9wcmVwLm1hZScsICctbXMnLCAnMScsICctcGgnLCAnNycsICctcGh0JywgJzAuNScsICctbnQn

> <r_lp_tautomer_probability>
0.999206294981429

> <r_epik_Ionization_Penalty>
  0.0650

> <r_epik_Ionization_Penalty_Charging>
  0.0648

> <r_epik_Ionization_Penalty_Neutral>
  0.0002

> <r_epik_State_Penalty>
  0.0564

> <r_epik_Charging_Adjusted_Penalty>
0.121173556533061

> <i_epik_Tot_Q>
1

> <i_epik_Tot_abs_Q>
1

$$$$
