5er1_ligand
                    3D
 Schrodinger Suite 2020-3.
 86 86  0  0  1  0            999 V2000
   36.8870   -4.6090    1.6280 C   0  0  0  0  0  0
   38.3870   -6.4960    2.0040 C   0  0  0  0  0  0
   36.9420   -6.1370    1.6530 C   0  0  0  0  0  0
   35.9240   -6.7550    2.6110 C   0  0  0  0  0  0
   34.8830   -8.9140    2.0700 N   0  0  0  0  0  0
   36.0430   -8.2750    2.7100 C   0  0  2  0  0  0
   36.0700   -8.6090    4.1960 C   0  0  1  0  0  0
   34.8400   -8.2350    4.7810 O   0  0  0  0  0  0
   36.4000  -10.0830    4.4700 C   0  0  0  0  0  0
   35.3670  -10.8190    4.8460 N   0  3  0  0  0  0
   35.5180  -12.0550    5.6330 C   0  0  2  0  0  0
   36.9810  -12.4800    5.6680 C   0  0  0  0  0  0
   37.5530  -12.8830    4.6450 O   0  0  0  0  0  0
   34.8040  -13.2220    4.9470 C   0  0  0  0  0  0
   35.1140  -14.5740    5.5950 C   0  0  0  0  0  0
   33.2810  -13.0900    4.9680 C   0  0  0  0  0  0
   37.5410  -12.3800    6.8530 N   0  0  0  0  0  0
   38.9210  -12.7960    7.1110 C   0  0  2  0  0  0
   39.0550  -14.3010    6.8730 C   0  0  0  0  0  0
   38.2960  -15.1060    7.4340 O   0  0  0  0  0  0
   39.3040  -12.4700    8.5540 C   0  0  2  0  0  0
   40.6630  -13.0470    8.9550 C   0  0  0  0  0  0
   38.3010  -13.0100    9.5750 C   0  0  0  0  0  0
   41.4910  -12.0850    9.8090 C   0  0  0  0  0  0
   40.0140  -14.6280    6.0300 N   0  0  0  0  0  0
   40.3100  -16.0180    5.6550 C   0  0  2  0  0  0
   41.6600  -16.4400    6.2390 C   0  0  0  0  0  0
   42.3860  -17.2510    5.6460 O   0  0  0  0  0  0
   40.3720  -16.1470    4.1310 C   0  0  0  0  0  0
   39.0240  -16.5060    3.5020 C   0  0  0  0  0  0
   37.8320  -16.1110    4.1230 C   0  0  0  0  0  0
   38.9810  -17.2280    2.3030 C   0  0  0  0  0  0
   36.5990  -16.4360    3.5440 C   0  0  0  0  0  0
   37.7480  -17.5520    1.7240 C   0  0  0  0  0  0
   36.5570  -17.1560    2.3440 C   0  0  0  0  0  0
   43.1450  -14.9660    7.2560 C   0  0  0  0  0  0
   42.0980  -15.9000    7.4770 O   0  0  0  0  0  0
   37.6399   -4.2265    0.9231 H   0  0  0  0  0  0
   37.0953   -4.2181    2.6349 H   0  0  0  0  0  0
   35.8862   -4.2833    1.3080 H   0  0  0  0  0  0
   39.0682   -6.0233    1.2811 H   0  0  0  0  0  0
   38.5129   -7.5881    1.9665 H   0  0  0  0  0  0
   38.6189   -6.1347    3.0168 H   0  0  0  0  0  0
   36.6590   -6.5562    0.6762 H   0  0  0  0  0  0
   36.0721   -6.3421    3.6197 H   0  0  0  0  0  0
   34.9062   -6.5216    2.2651 H   0  0  0  0  0  0
   33.9590   -8.5669    2.5555 H   0  0  0  0  0  0
   34.8594   -8.6467    1.0032 H   0  0  0  0  0  0
   36.9274   -8.6614    2.1823 H   0  0  0  0  0  0
   36.8219   -7.9877    4.7046 H   0  0  0  0  0  0
   34.4687   -7.2055    4.6701 H   0  0  0  0  0  0
   36.8039  -10.5442    3.5567 H   0  0  0  0  0  0
   37.1470  -10.1480    5.2748 H   0  0  0  0  0  0
   34.6961  -10.2152    5.4748 H   0  0  0  0  0  0
   34.8214  -11.1668    3.9564 H   0  0  0  0  0  0
   35.1062  -11.8099    6.6231 H   0  0  0  0  0  0
   35.1839  -13.1817    3.9155 H   0  0  0  0  0  0
   36.2025  -14.7318    5.6112 H   0  0  0  0  0  0
   34.6357  -15.3769    5.0149 H   0  0  0  0  0  0
   34.7265  -14.5846    6.6244 H   0  0  0  0  0  0
   32.9897  -12.1319    4.5128 H   0  0  0  0  0  0
   32.9242  -13.1254    6.0079 H   0  0  0  0  0  0
   32.8334  -13.9177    4.3983 H   0  0  0  0  0  0
   36.9302  -11.9646    7.6681 H   0  0  0  0  0  0
   39.5576  -12.2332    6.4124 H   0  0  0  0  0  0
   39.3246  -11.3703    8.5700 H   0  0  0  0  0  0
   40.5128  -13.9675    9.5382 H   0  0  0  0  0  0
   41.2451  -13.2770    8.0504 H   0  0  0  0  0  0
   37.2966  -12.6282    9.3396 H   0  0  0  0  0  0
   38.5913  -12.6808   10.5836 H   0  0  0  0  0  0
   38.2939  -14.1093    9.5360 H   0  0  0  0  0  0
   42.4522  -12.5554   10.0637 H   0  0  0  0  0  0
   40.9420  -11.8493   10.7326 H   0  0  0  0  0  0
   41.6742  -11.1587    9.2447 H   0  0  0  0  0  0
   40.6050  -13.8050    5.6017 H   0  0  0  0  0  0
   39.4950  -16.6307    6.0676 H   0  0  0  0  0  0
   40.6983  -15.1912    3.6951 H   0  0  0  0  0  0
   41.0870  -16.9373    3.8587 H   0  0  0  0  0  0
   37.8643  -15.5504    5.0573 H   0  0  0  0  0  0
   39.9078  -17.5379    1.8202 H   0  0  0  0  0  0
   35.6719  -16.1284    4.0276 H   0  0  0  0  0  0
   37.7155  -18.1129    0.7900 H   0  0  0  0  0  0
   35.5974  -17.4081    1.8927 H   0  0  0  0  0  0
   43.4776  -14.5533    8.2198 H   0  0  0  0  0  0
   42.7796  -14.1506    6.6144 H   0  0  0  0  0  0
   43.9886  -15.4708    6.7626 H   0  0  0  0  0  0
  1  3  1  0  0  0
  1 38  1  0  0  0
  1 39  1  0  0  0
  1 40  1  0  0  0
  2  3  1  0  0  0
  2 41  1  0  0  0
  2 42  1  0  0  0
  2 43  1  0  0  0
  3  4  1  0  0  0
  3 44  1  0  0  0
  4  6  1  0  0  0
  4 45  1  0  0  0
  4 46  1  0  0  0
  5  6  1  0  0  0
  5 47  1  0  0  0
  5 48  1  0  0  0
  6  7  1  0  0  0
  6 49  1  0  0  0
  7  8  1  0  0  0
  7  9  1  0  0  0
  7 50  1  0  0  0
  8 51  1  0  0  0
  9 10  1  0  0  0
  9 52  1  0  0  0
  9 53  1  0  0  0
 10 11  1  0  0  0
 10 54  1  0  0  0
 10 55  1  0  0  0
 11 12  1  0  0  0
 11 14  1  0  0  0
 11 56  1  0  0  0
 12 13  2  0  0  0
 12 17  1  0  0  0
 14 15  1  0  0  0
 14 16  1  0  0  0
 14 57  1  0  0  0
 15 58  1  0  0  0
 15 59  1  0  0  0
 15 60  1  0  0  0
 16 61  1  0  0  0
 16 62  1  0  0  0
 16 63  1  0  0  0
 17 18  1  0  0  0
 17 64  1  0  0  0
 18 19  1  0  0  0
 18 21  1  0  0  0
 18 65  1  0  0  0
 19 20  2  0  0  0
 19 25  1  0  0  0
 21 22  1  0  0  0
 21 23  1  0  0  0
 21 66  1  0  0  0
 22 24  1  0  0  0
 22 67  1  0  0  0
 22 68  1  0  0  0
 23 69  1  0  0  0
 23 70  1  0  0  0
 23 71  1  0  0  0
 24 72  1  0  0  0
 24 73  1  0  0  0
 24 74  1  0  0  0
 25 26  1  0  0  0
 25 75  1  0  0  0
 26 27  1  0  0  0
 26 29  1  0  0  0
 26 76  1  0  0  0
 27 28  2  0  0  0
 27 37  1  0  0  0
 29 30  1  0  0  0
 29 77  1  0  0  0
 29 78  1  0  0  0
 30 32  2  0  0  0
 30 31  1  0  0  0
 31 33  2  0  0  0
 31 79  1  0  0  0
 32 34  1  0  0  0
 32 80  1  0  0  0
 33 35  1  0  0  0
 33 81  1  0  0  0
 34 35  2  0  0  0
 34 82  1  0  0  0
 35 83  1  0  0  0
 36 37  1  0  0  0
 36 84  1  0  0  0
 36 85  1  0  0  0
 36 86  1  0  0  0
M  CHG  1  10   1
M  END
> <s_m_source_file>
../5er1_ligand.sdf

> <i_m_source_file_index>
1

> <s_epik_input>
W0NIM11bQ0hdKFtDSDNdKVtDSDJdW0NASF0oW05IMytdKVtDQEBIXShbT0hdKVtDSDJdW05IMitdW0NAQEhdKFtDSF0oW0NIM10pW0NIM10pQyg9TylbTkhdW0NAQEhdKFtDQEBIXShbQ0gzXSlbQ0gyXVtDSDNdKUMoPU8pW05IXVtDQEhdKEMoPU8pT1tDSDNdKVtDSDJdYzFbY0hdW2NIXVtjSF1bY0hdW2NIXTE=

> <s_epik_cmdline>
J2VwaWtfYXBwJywgJy1pbWFlJywgJ2xpZ2FuZF9wcm8ubWFlJywgJy1vbWFlJywgJ2xpZ2FuZF9wcmVwLm1hZScsICctbXMnLCAnMScsICctcGgnLCAnNycsICctcGh0JywgJzAuNScsICctbnQn

> <r_lp_tautomer_probability>
1

> <r_epik_Ionization_Penalty>
  0.0791

> <r_epik_Ionization_Penalty_Charging>
  0.0190

> <r_epik_Ionization_Penalty_Neutral>
  0.0601

> <r_epik_State_Penalty>
 -0.0000

> <r_epik_Charging_Adjusted_Penalty>
0.0190203335822807

> <i_epik_Tot_Q>
1

> <i_epik_Tot_abs_Q>
1

> <s_epik_Chemistry_Notes>
This compound has an ester and may undergo hydrolysis at high or low pH.

$$$$
