5er2_ligand
                    3D
 Schrodinger Suite 2020-3.
142145  0  0  1  0            999 V2000
    1.8910   27.1630   20.0240 O   0  0  0  0  0  0
    2.6450   26.3830   19.4510 C   0  0  0  0  0  0
    2.5120   24.9680   19.4990 O   0  0  0  0  0  0
    1.4250   24.4700   20.2720 C   0  0  0  0  0  0
    1.5230   22.9370   20.2300 C   0  0  0  0  0  0
    0.0820   24.9150   19.6930 C   0  0  0  0  0  0
    1.5460   24.9270   21.7290 C   0  0  0  0  0  0
    3.6800   26.7560   18.7220 N   0  0  0  0  0  0
    4.0640   28.1530   18.4910 C   0  0  2  0  0  0
    3.2970   28.7290   17.3100 C   0  0  0  0  0  0
    2.9620   28.0120   16.3730 O   0  0  0  0  0  0
    5.5660   28.2490   18.2070 C   0  0  0  0  0  0
    6.3520   28.1020   19.5110 C   0  0  0  0  0  0
    5.9790   28.8470   20.6230 C   0  0  0  0  0  0
    7.4280   27.2250   19.5620 C   0  0  0  0  0  0
    6.6930   28.7160   21.8090 C   0  0  0  0  0  0
    8.1370   27.1000   20.7510 C   0  0  0  0  0  0
    7.7710   27.8400   21.8690 C   0  0  0  0  0  0
    3.0910   30.0400   17.3820 N   0  0  0  0  0  0
    2.3720   30.7220   16.2530 C   0  0  2  0  0  0
    3.0440   32.0620   15.9940 C   0  0  0  0  0  0
    2.6860   33.0900   16.5650 O   0  0  0  0  0  0
    0.9320   30.9740   16.6510 C   0  0  0  0  0  0
    0.1370   31.3760   15.4140 C   0  0  0  0  0  0
    0.5090   31.0740   14.1060 N   0  0  0  0  0  0
   -1.0600   32.1140   15.3660 C   0  0  0  0  0  0
   -0.4580   31.6090   13.2570 C   0  0  0  0  0  0
   -1.4260   32.2670   14.0280 N   0  0  0  0  0  0
    4.0320   32.0130   15.1300 N   0  0  0  0  0  0
    4.9180   33.1770   14.9660 C   0  0  1  0  0  0
    6.3790   32.7570   15.1140 C   0  0  0  0  0  0
    6.7400   32.3700   16.5450 C   0  0  0  0  0  0
    6.3080   33.4030   17.5880 C   0  0  0  0  0  0
    8.2320   32.0600   16.6920 C   0  0  0  0  0  0
    6.5800   32.8580   18.9960 C   0  0  0  0  0  0
    8.5440   31.5320   18.0930 C   0  0  0  0  0  0
    8.0540   32.4910   19.1790 C   0  0  0  0  0  0
    4.6570   33.8330   13.6040 C   0  0  1  0  0  0
    5.2410   33.0280   12.5730 O   0  0  0  0  0  0
    3.1620   33.9930   13.3430 C   0  0  0  0  0  0
    2.9580   35.1140   12.4140 N   0  0  0  0  0  0
    2.5730   34.8420   11.0210 C   0  0  0  0  0  0
    1.1240   34.3860   10.9140 C   0  0  0  0  0  0
    0.1630   35.5610   10.9230 C   0  0  0  0  0  0
    0.8930   33.4470    9.7460 C   0  0  0  0  0  0
    3.0430   36.3530   12.8660 C   0  0  0  0  0  0
    3.2620   36.5440   14.0650 O   0  0  0  0  0  0
    3.0340   37.3660   12.0150 N   0  0  0  0  0  0
    2.9300   38.7370   12.5440 C   0  0  2  0  0  0
    1.4770   39.1560   12.6560 C   0  0  0  0  0  0
    0.7080   39.0870   11.6980 O   0  0  0  0  0  0
    3.6880   39.6980   11.6440 C   0  0  0  0  0  0
    3.8990   41.0230   12.3560 C   0  0  0  0  0  0
    4.0770   42.1490   11.3510 C   0  0  0  0  0  0
    3.7560   43.4800   12.0150 C   0  0  0  0  0  0
    3.8870   44.5620   11.0270 N   0  3  0  0  0  0
    1.0510   39.6000   13.8260 N   0  0  0  0  0  0
   -0.3710   39.9870   13.9450 C   0  0  2  0  0  0
   -0.4890   41.2800   14.7380 C   0  0  0  0  0  0
   -0.2760   42.3520   14.1700 O   0  0  0  0  0  0
   -1.1590   38.8810   14.6350 C   0  0  0  0  0  0
   -2.3310   38.2850   13.8600 C   0  0  0  0  0  0
   -3.4900   37.9290   14.5490 C   0  0  0  0  0  0
   -2.3070   38.0710   12.4850 C   0  0  0  0  0  0
   -4.5840   37.3830   13.8890 C   0  0  0  0  0  0
   -3.3950   37.5240   11.8100 C   0  0  0  0  0  0
   -4.5450   37.1760   12.5140 C   0  0  0  0  0  0
   -0.7930   41.1760   16.0170 O   0  5  0  0  0  0
    1.4377   22.5925   19.1888 H   0  0  0  0  0  0
    0.7093   22.5011   20.8283 H   0  0  0  0  0  0
    2.4921   22.6201   20.6429 H   0  0  0  0  0  0
    0.0052   24.5822   18.6474 H   0  0  0  0  0  0
    0.0100   26.0118   19.7349 H   0  0  0  0  0  0
   -0.7355   24.4712   20.2801 H   0  0  0  0  0  0
    2.5150   24.6021   22.1359 H   0  0  0  0  0  0
    0.7322   24.4832   22.3212 H   0  0  0  0  0  0
    1.4777   26.0239   21.7761 H   0  0  0  0  0  0
    4.2696   25.9423   18.2745 H   0  0  0  0  0  0
    3.8020   28.6942   19.4121 H   0  0  0  0  0  0
    5.8600   27.4474   17.5135 H   0  0  0  0  0  0
    5.7920   29.2260   17.7550 H   0  0  0  0  0  0
    5.1316   29.5302   20.5660 H   0  0  0  0  0  0
    7.7117   26.6445   18.6842 H   0  0  0  0  0  0
    6.4092   29.2968   22.6866 H   0  0  0  0  0  0
    8.9851   26.4175   20.8069 H   0  0  0  0  0  0
    8.3319   27.7331   22.7975 H   0  0  0  0  0  0
    3.4361   30.6249   18.2473 H   0  0  0  0  0  0
    2.4065   30.0810   15.3598 H   0  0  0  0  0  0
    0.4325   30.9098   17.6290 H   0  0  0  0  0  0
   -1.6867   32.5454   16.1604 H   0  0  0  0  0  0
   -0.4610   31.5288   12.1700 H   0  0  0  0  0  0
    4.1985   31.1062   14.5300 H   0  0  0  0  0  0
    4.6775   33.8878   15.7703 H   0  0  0  0  0  0
    6.5775   31.8874   14.4702 H   0  0  0  0  0  0
    7.0321   33.5905   14.8161 H   0  0  0  0  0  0
    6.1635   31.4545   16.7438 H   0  0  0  0  0  0
    6.8764   34.3331   17.4401 H   0  0  0  0  0  0
    5.2331   33.6086   17.4771 H   0  0  0  0  0  0
    8.5226   31.2978   15.9540 H   0  0  0  0  0  0
    8.8155   32.9767   16.5215 H   0  0  0  0  0  0
    6.3158   33.6218   19.7422 H   0  0  0  0  0  0
    5.9729   31.9562   19.1637 H   0  0  0  0  0  0
    8.0476   30.5611   18.2379 H   0  0  0  0  0  0
    9.6313   31.4081   18.2045 H   0  0  0  0  0  0
    8.6672   33.4031   19.1343 H   0  0  0  0  0  0
    8.1921   32.0039   20.1555 H   0  0  0  0  0  0
    5.1481   34.8159   13.5511 H   0  0  0  0  0  0
    6.3176   32.8034   12.5940 H   0  0  0  0  0  0
    2.7658   33.0669   12.9009 H   0  0  0  0  0  0
    2.6440   34.1973   14.2916 H   0  0  0  0  0  0
    2.6923   35.7570   10.4223 H   0  0  0  0  0  0
    3.2159   34.0491   10.6110 H   0  0  0  0  0  0
    0.9040   33.7937   11.8144 H   0  0  0  0  0  0
    0.3782   36.2040   11.7891 H   0  0  0  0  0  0
   -0.8701   35.1892   10.9900 H   0  0  0  0  0  0
    0.2845   36.1412    9.9964 H   0  0  0  0  0  0
    1.6158   32.6191    9.7927 H   0  0  0  0  0  0
    1.0252   33.9964    8.8022 H   0  0  0  0  0  0
   -0.1295   33.0444    9.7959 H   0  0  0  0  0  0
    3.1024   37.1989   10.9299 H   0  0  0  0  0  0
    3.3803   38.7301   13.5476 H   0  0  0  0  0  0
    4.6666   39.2659   11.3879 H   0  0  0  0  0  0
    3.1111   39.8706   10.7234 H   0  0  0  0  0  0
    3.0251   41.2436   12.9866 H   0  0  0  0  0  0
    4.7992   40.9619   12.9852 H   0  0  0  0  0  0
    5.1171   42.1601   10.9932 H   0  0  0  0  0  0
    3.3981   41.9916   10.4999 H   0  0  0  0  0  0
    2.7265   43.4579   12.4018 H   0  0  0  0  0  0
    4.4560   43.6537   12.8455 H   0  0  0  0  0  0
    3.6553   45.5252   11.5052 H   0  0  0  0  0  0
    3.1870   44.3870   10.1967 H   0  0  0  0  0  0
    4.9166   44.5828   10.6404 H   0  0  0  0  0  0
    1.7190   39.6859   14.6957 H   0  0  0  0  0  0
   -0.7566   40.1365   12.9257 H   0  0  0  0  0  0
   -0.4891   38.0372   14.8569 H   0  0  0  0  0  0
   -1.5870   39.2658   15.5724 H   0  0  0  0  0  0
   -3.5387   38.0822   15.6271 H   0  0  0  0  0  0
   -1.4130   38.3386   11.9218 H   0  0  0  0  0  0
   -5.4781   37.1153   14.4520 H   0  0  0  0  0  0
   -3.3467   37.3684   10.7322 H   0  0  0  0  0  0
   -5.4024   36.7475   11.9950 H   0  0  0  0  0  0
    1.4307   30.5052   13.9137 H   0  0  0  0  0  0
  1  2  2  0  0  0
  2  3  1  0  0  0
  2  8  1  0  0  0
  3  4  1  0  0  0
  4  5  1  0  0  0
  4  6  1  0  0  0
  4  7  1  0  0  0
  5 69  1  0  0  0
  5 70  1  0  0  0
  5 71  1  0  0  0
  6 72  1  0  0  0
  6 73  1  0  0  0
  6 74  1  0  0  0
  7 75  1  0  0  0
  7 76  1  0  0  0
  7 77  1  0  0  0
  8  9  1  0  0  0
  8 78  1  0  0  0
  9 12  1  0  0  0
  9 10  1  0  0  0
  9 79  1  0  0  0
 10 11  2  0  0  0
 10 19  1  0  0  0
 12 13  1  0  0  0
 12 80  1  0  0  0
 12 81  1  0  0  0
 13 14  2  0  0  0
 13 15  1  0  0  0
 14 16  1  0  0  0
 14 82  1  0  0  0
 15 17  2  0  0  0
 15 83  1  0  0  0
 16 18  2  0  0  0
 16 84  1  0  0  0
 17 18  1  0  0  0
 17 85  1  0  0  0
 18 86  1  0  0  0
 19 20  1  0  0  0
 19 87  1  0  0  0
 20 23  1  0  0  0
 20 21  1  0  0  0
 20 88  1  0  0  0
 21 22  2  0  0  0
 21 29  1  0  0  0
 23 24  2  0  0  0
 23 89  1  0  0  0
 24 25  1  0  0  0
 24 26  1  0  0  0
 25 27  1  0  0  0
 25142  1  0  0  0
 26 28  2  0  0  0
 26 90  1  0  0  0
 27 28  1  0  0  0
 27 91  1  0  0  0
 29 30  1  0  0  0
 29 92  1  0  0  0
 30 31  1  0  0  0
 30 38  1  0  0  0
 30 93  1  0  0  0
 31 32  1  0  0  0
 31 94  1  0  0  0
 31 95  1  0  0  0
 32 33  1  0  0  0
 32 34  1  0  0  0
 32 96  1  0  0  0
 33 35  1  0  0  0
 33 97  1  0  0  0
 33 98  1  0  0  0
 34 36  1  0  0  0
 34 99  1  0  0  0
 34100  1  0  0  0
 35 37  1  0  0  0
 35101  1  0  0  0
 35102  1  0  0  0
 36 37  1  0  0  0
 36103  1  0  0  0
 36104  1  0  0  0
 37105  1  0  0  0
 37106  1  0  0  0
 38 39  1  0  0  0
 38 40  1  0  0  0
 38107  1  0  0  0
 39108  1  0  0  0
 40 41  1  0  0  0
 40109  1  0  0  0
 40110  1  0  0  0
 41 42  1  0  0  0
 41 46  1  0  0  0
 42 43  1  0  0  0
 42111  1  0  0  0
 42112  1  0  0  0
 43 44  1  0  0  0
 43 45  1  0  0  0
 43113  1  0  0  0
 44114  1  0  0  0
 44115  1  0  0  0
 44116  1  0  0  0
 45117  1  0  0  0
 45118  1  0  0  0
 45119  1  0  0  0
 46 47  2  0  0  0
 46 48  1  0  0  0
 48 49  1  0  0  0
 48120  1  0  0  0
 49 52  1  0  0  0
 49 50  1  0  0  0
 49121  1  0  0  0
 50 51  2  0  0  0
 50 57  1  0  0  0
 52 53  1  0  0  0
 52122  1  0  0  0
 52123  1  0  0  0
 53 54  1  0  0  0
 53124  1  0  0  0
 53125  1  0  0  0
 54 55  1  0  0  0
 54126  1  0  0  0
 54127  1  0  0  0
 55 56  1  0  0  0
 55128  1  0  0  0
 55129  1  0  0  0
 56130  1  0  0  0
 56131  1  0  0  0
 56132  1  0  0  0
 57 58  1  0  0  0
 57133  1  0  0  0
 58 61  1  0  0  0
 58 59  1  0  0  0
 58134  1  0  0  0
 59 60  2  0  0  0
 59 68  1  0  0  0
 61 62  1  0  0  0
 61135  1  0  0  0
 61136  1  0  0  0
 62 63  2  0  0  0
 62 64  1  0  0  0
 63 65  1  0  0  0
 63137  1  0  0  0
 64 66  2  0  0  0
 64138  1  0  0  0
 65 67  2  0  0  0
 65139  1  0  0  0
 66 67  1  0  0  0
 66140  1  0  0  0
 67141  1  0  0  0
M  CHG  2  56   1  68  -1
M  END
> <s_m_source_file>
../5er2_ligand.sdf

> <i_m_source_file_index>
1

> <s_epik_input>
W2NIXTFbY0hdW2NIXVtjSF1bY0hdYzFbQ0gyXVtDQEhdKFtOSF1DKD1PKU9DKFtDSDNdKShbQ0gzXSlbQ0gzXSlDKD1PKVtOSF1bQ0BASF0oW0NIMl1DMj1OW0NIMl1OPVtDSF0yKUMoPU8pW05IXVtDQEBIXShbQ0gyXVtDSF0zW0NIMl1bQ0gyXVtDSDJdW0NIMl1bQ0gyXTMpW0NAQEhdKFtPSF0pW0NIMl1OKFtDSDJdW0NIXShbQ0gzXSlbQ0gzXSlDKD1PKVtOSF1bQ0BASF0oW0NIMl1bQ0gyXVtDSDJdW0NIMl1bTkgzK10pQyg9TylbTkhdW0NASF0oQyg9TylbT0hdKVtDSDJdYzRbY0hdW2NIXVtjSF1bY0hdW2NIXTQ=

> <s_epik_cmdline>
J2VwaWtfYXBwJywgJy1pbWFlJywgJ2xpZ2FuZF9wcm8ubWFlJywgJy1vbWFlJywgJ2xpZ2FuZF9wcmVwLm1hZScsICctbXMnLCAnMScsICctcGgnLCAnNycsICctcGh0JywgJzAuNScsICctbnQn

> <r_lp_tautomer_probability>
1

> <r_epik_Ionization_Penalty>
  0.0007

> <r_epik_Ionization_Penalty_Charging>
  0.0006

> <r_epik_Ionization_Penalty_Neutral>
  0.0001

> <r_epik_State_Penalty>
 -0.0000

> <r_epik_Charging_Adjusted_Penalty>
0.000612954821195166

> <i_epik_Tot_Q>
0

> <i_epik_Tot_abs_Q>
2

> <s_epik_Chemistry_Notes>
This compound has an ester and may undergo hydrolysis at high or low pH. This compound has an imine and may undergo hydrolysis.

$$$$
