5est_ligand
                    3D
 Schrodinger Suite 2020-3.
 47 47  0  0  1  0            999 V2000
  -13.6270   18.8730   38.6290 C   0  0  0  0  0  0
  -13.8270   20.0880   38.5980 O   0  0  0  0  0  0
  -14.5860   17.8880   38.4970 O   0  0  0  0  0  0
  -16.0030   18.2440   38.3930 C   0  0  0  0  0  0
  -16.7080   17.5960   39.5740 C   0  0  0  0  0  0
  -17.3610   18.3920   40.5330 C   0  0  0  0  0  0
  -17.8650   17.8010   41.6970 C   0  0  0  0  0  0
  -17.6930   16.4270   41.9410 C   0  0  0  0  0  0
  -17.0680   15.6290   40.9570 C   0  0  0  0  0  0
  -16.5810   16.2120   39.7760 C   0  0  0  0  0  0
  -12.4690   18.3000   38.9440 N   0  0  0  0  0  0
  -11.2450   18.9620   39.2740 C   0  0  2  0  0  0
  -10.7370   19.7630   38.0910 C   0  0  0  0  0  0
  -10.8110   19.3050   36.9360 O   0  0  0  0  0  0
  -10.2080   17.9170   39.6480 C   0  0  0  0  0  0
  -10.3250   20.9870   38.4350 N   0  0  0  0  0  0
   -9.8070   21.9460   37.4270 C   0  0  1  0  0  0
  -10.6290   23.1970   37.3160 C   0  0  2  0  0  0
  -10.8690   23.9670   38.6770 C   0  0  0  0  0  0
  -11.9280   22.8270   36.6370 C   0  0  0  0  0  0
  -11.0660   25.4860   38.4970 C   0  0  0  0  0  0
   -8.1610   22.3650   37.6310 B   0  0  0  0  0  0
   -7.2190   21.8470   36.8020 O   0  0  0  0  0  0
  -16.1096   19.3383   38.4276 H   0  0  0  0  0  0
  -16.4072   17.8662   37.4423 H   0  0  0  0  0  0
  -17.4737   19.4638   40.3700 H   0  0  0  0  0  0
  -18.3979   18.4138   42.4240 H   0  0  0  0  0  0
  -18.0369   15.9841   42.8757 H   0  0  0  0  0  0
  -16.9633   14.5556   41.1152 H   0  0  0  0  0  0
  -16.1050   15.5912   39.0170 H   0  0  0  0  0  0
  -12.5146   17.2010   38.9342 H   0  0  0  0  0  0
  -11.4819   19.6307   40.1147 H   0  0  0  0  0  0
  -10.5702   17.3318   40.5061 H   0  0  0  0  0  0
   -9.2650   18.4158   39.9161 H   0  0  0  0  0  0
  -10.0379   17.2467   38.7926 H   0  0  0  0  0  0
  -10.3767   21.2774   39.4947 H   0  0  0  0  0  0
  -10.0571   21.3649   36.5271 H   0  0  0  0  0  0
  -10.0518   23.8821   36.6776 H   0  0  0  0  0  0
  -11.7719   23.5733   39.1667 H   0  0  0  0  0  0
  -10.0013   23.8232   39.3376 H   0  0  0  0  0  0
  -11.7126   22.2954   35.6983 H   0  0  0  0  0  0
  -12.5005   23.7404   36.4181 H   0  0  0  0  0  0
  -12.5161   22.1759   37.3005 H   0  0  0  0  0  0
  -11.2268   25.9538   39.4795 H   0  0  0  0  0  0
  -11.9411   25.6688   37.8561 H   0  0  0  0  0  0
  -10.1705   25.9187   38.0270 H   0  0  0  0  0  0
   -6.1610   22.1174   36.9345 H   0  0  0  0  0  0
  1  2  2  0  0  0
  1  3  1  0  0  0
  1 11  1  0  0  0
  3  4  1  0  0  0
  4  5  1  0  0  0
  4 24  1  0  0  0
  4 25  1  0  0  0
  5  6  2  0  0  0
  5 10  1  0  0  0
  6  7  1  0  0  0
  6 26  1  0  0  0
  7  8  2  0  0  0
  7 27  1  0  0  0
  8  9  1  0  0  0
  8 28  1  0  0  0
  9 10  2  0  0  0
  9 29  1  0  0  0
 10 30  1  0  0  0
 11 12  1  0  0  0
 11 31  1  0  0  0
 12 13  1  0  0  0
 12 15  1  0  0  0
 12 32  1  0  0  0
 13 14  2  0  0  0
 13 16  1  0  0  0
 15 33  1  0  0  0
 15 34  1  0  0  0
 15 35  1  0  0  0
 16 17  1  0  0  0
 16 36  1  0  0  0
 17 18  1  0  0  0
 17 22  1  0  0  0
 17 37  1  0  0  0
 18 19  1  0  0  0
 18 20  1  0  0  0
 18 38  1  0  0  0
 19 21  1  0  0  0
 19 39  1  0  0  0
 19 40  1  0  0  0
 20 41  1  0  0  0
 20 42  1  0  0  0
 20 43  1  0  0  0
 21 44  1  0  0  0
 21 45  1  0  0  0
 21 46  1  0  0  0
 22 23  1  0  0  0
 23 47  1  0  0  0
M  END
> <s_m_source_file>
../5est_ligand.sdf

> <i_m_source_file_index>
1

> <s_epik_input>
W0NIM11bQ0gyXVtDQEhdKFtDSDNdKVtDQEBIXShbQkhdW09IXSlbTkhdQyg9TylbQ0BIXShbQ0gzXSlbTkhdQyg9TylPW0NIMl1jMVtjSF1bY0hdW2NIXVtjSF1bY0hdMQ==

> <s_epik_cmdline>
J2VwaWtfYXBwJywgJy1pbWFlJywgJ2xpZ2FuZF9wcm8ubWFlJywgJy1vbWFlJywgJ2xpZ2FuZF9wcmVwLm1hZScsICctbXMnLCAnMScsICctcGgnLCAnNycsICctcGh0JywgJzAuNScsICctbnQn

> <r_lp_tautomer_probability>
1

> <r_epik_Ionization_Penalty>
  0.0000

> <r_epik_Ionization_Penalty_Charging>
  0.0000

> <r_epik_Ionization_Penalty_Neutral>
  0.0000

> <r_epik_State_Penalty>
 -0.0000

> <r_epik_Charging_Adjusted_Penalty>
0

> <i_epik_Tot_Q>
0

> <i_epik_Tot_abs_Q>
0

> <s_epik_Chemistry_Notes>
This compound has an ester and may undergo hydrolysis at high or low pH.

$$$$
