5f2k_ligand
                    3D
 Schrodinger Suite 2020-3.
 46 48  0  0  1  0            999 V2000
  -21.5560   -3.2870  -31.9000 N   0  3  0  0  0  0
  -20.4620   -2.8150  -31.0380 C   0  0  1  0  0  0
  -19.2570   -3.7670  -31.1360 C   0  0  0  0  0  0
  -18.5490   -3.7510  -32.4970 C   0  0  0  0  0  0
  -16.9770   -4.5730  -32.3800 S   0  0  0  0  0  0
  -20.0970   -1.3890  -31.3530 C   0  0  0  0  0  0
  -20.7280   -0.7300  -32.1850 O   0  0  0  0  0  0
  -19.1600   -0.8350  -30.7660 O   0  5  0  0  0  0
  -17.1090   -5.8240  -33.6230 C   0  0  0  0  0  0
  -17.7520   -7.0990  -33.0730 C   0  0  1  0  0  0
  -18.1890   -7.9250  -34.1630 O   0  0  0  0  0  0
  -16.7660   -7.9340  -32.2510 C   0  0  1  0  0  0
  -17.3040   -8.2520  -30.9620 O   0  0  0  0  0  0
  -16.5930   -9.1970  -33.0720 C   0  0  1  0  0  0
  -16.2890  -10.3620  -32.2970 O   0  0  0  0  0  0
  -17.9440   -9.2680  -33.7720 C   0  0  2  0  0  0
  -17.9140  -10.2110  -34.9050 N   0  0  0  0  0  0
  -17.0110  -10.2770  -35.9010 C   0  0  0  0  0  0
  -17.3100  -11.3000  -36.7430 N   0  0  0  0  0  0
  -18.4130  -11.9040  -36.2630 C   0  0  0  0  0  0
  -19.2670  -13.0410  -36.6520 C   0  0  0  0  0  0
  -18.9730  -13.7680  -37.7520 N   0  0  0  0  0  0
  -20.3390  -13.3260  -35.8700 N   0  0  0  0  0  0
  -20.6360  -12.6170  -34.7650 C   0  0  0  0  0  0
  -19.9000  -11.5680  -34.3540 N   0  0  0  0  0  0
  -18.8060  -11.1780  -35.0530 C   0  0  0  0  0  0
  -21.7991   -4.3294  -31.6462 H   0  0  0  0  0  0
  -21.2439   -3.2292  -32.9532 H   0  0  0  0  0  0
  -22.4432   -2.6554  -31.7453 H   0  0  0  0  0  0
  -20.8467   -2.8166  -30.0075 H   0  0  0  0  0  0
  -18.5077   -3.4890  -30.3802 H   0  0  0  0  0  0
  -19.5906   -4.8001  -30.9589 H   0  0  0  0  0  0
  -19.1722   -4.2694  -33.2406 H   0  0  0  0  0  0
  -18.3886   -2.7102  -32.8147 H   0  0  0  0  0  0
  -17.7287   -5.4527  -34.4525 H   0  0  0  0  0  0
  -16.1060   -6.0751  -33.9985 H   0  0  0  0  0  0
  -18.6283   -6.8152  -32.4717 H   0  0  0  0  0  0
  -15.8274   -7.4157  -32.0051 H   0  0  0  0  0  0
  -17.4948   -7.4509  -30.2328 H   0  0  0  0  0  0
  -15.7066   -9.2166  -33.7230 H   0  0  0  0  0  0
  -15.3388  -10.4237  -31.7463 H   0  0  0  0  0  0
  -18.7881   -9.6180  -33.1597 H   0  0  0  0  0  0
  -16.1605   -9.6049  -36.0156 H   0  0  0  0  0  0
  -18.0962  -13.5096  -38.3639 H   0  0  0  0  0  0
  -19.6105  -14.6183  -38.0358 H   0  0  0  0  0  0
  -21.5088  -12.9045  -34.1788 H   0  0  0  0  0  0
  1  2  1  0  0  0
  1 27  1  0  0  0
  1 28  1  0  0  0
  1 29  1  0  0  0
  2  3  1  0  0  0
  2  6  1  0  0  0
  2 30  1  0  0  0
  3  4  1  0  0  0
  3 31  1  0  0  0
  3 32  1  0  0  0
  4  5  1  0  0  0
  4 33  1  0  0  0
  4 34  1  0  0  0
  5  9  1  0  0  0
  6  7  2  0  0  0
  6  8  1  0  0  0
  9 10  1  0  0  0
  9 35  1  0  0  0
  9 36  1  0  0  0
 10 11  1  0  0  0
 10 12  1  0  0  0
 10 37  1  0  0  0
 11 16  1  0  0  0
 12 13  1  0  0  0
 12 14  1  0  0  0
 12 38  1  0  0  0
 13 39  1  0  0  0
 14 15  1  0  0  0
 14 16  1  0  0  0
 14 40  1  0  0  0
 15 41  1  0  0  0
 16 17  1  0  0  0
 16 42  1  0  0  0
 17 18  1  0  0  0
 17 26  1  0  0  0
 18 19  2  0  0  0
 18 43  1  0  0  0
 19 20  1  0  0  0
 20 21  2  0  0  0
 20 26  1  0  0  0
 21 22  1  0  0  0
 21 23  1  0  0  0
 22 44  1  0  0  0
 22 45  1  0  0  0
 23 24  2  0  0  0
 24 25  1  0  0  0
 24 46  1  0  0  0
 25 26  2  0  0  0
M  CHG  2   1   1   8  -1
M  END
> <s_m_source_file>
../5f2k_ligand.sdf

> <i_m_source_file_index>
1

> <s_epik_input>
Tz1DKFtPSF0pW0NAQEhdKFtOSDMrXSlbQ0gyXVtDSDJdU1tDSDJdW0NASF0xT1tDQEhdKFtDQEhdKFtPSF0pW0NAQEhdMVtPSF0pbihbY0hdbjIpYyhjMjMpbltjSF1uYzNbTkgyXQ==

> <s_epik_cmdline>
J2VwaWtfYXBwJywgJy1pbWFlJywgJ2xpZ2FuZF9wcm8ubWFlJywgJy1vbWFlJywgJ2xpZ2FuZF9wcmVwLm1hZScsICctbXMnLCAnMScsICctcGgnLCAnNycsICctcGh0JywgJzAuNScsICctbnQn

> <r_lp_tautomer_probability>
1

> <r_epik_Ionization_Penalty>
  0.0026

> <r_epik_Ionization_Penalty_Charging>
  0.0022

> <r_epik_Ionization_Penalty_Neutral>
  0.0004

> <r_epik_State_Penalty>
 -0.0000

> <r_epik_Charging_Adjusted_Penalty>
0.00216156469931729

> <i_epik_Tot_Q>
0

> <i_epik_Tot_abs_Q>
2

> <s_epik_Chemistry_Notes>
This compound contains an acetal/aminal-like group ( X-CH(R)-Y where X, Y are N, S, or O) that may be acid/base labile, releasing an aldehyde.

$$$$
