5fjw_ligand
                    3D
 Schrodinger Suite 2020-3.
152155  0  0  1  0            999 V2000
   66.3410    5.9040  138.6030 N   0  3  0  0  0  0
   66.5440    4.4600  138.3360 C   0  0  2  0  0  0
   65.2110    3.6930  138.4310 C   0  0  0  0  0  0
   64.6650    3.5020  139.5350 O   0  0  0  0  0  0
   67.5800    3.9030  139.3320 C   0  0  0  0  0  0
   68.1980    2.5810  138.8780 C   0  0  0  0  0  0
   68.1210    2.2250  137.6780 O   0  0  0  0  0  0
   68.7800    1.8900  139.7400 O   0  0  0  0  0  0
   64.6970    3.2530  137.2750 N   0  0  0  0  0  0
   63.5370    2.3330  137.2380 C   0  0  2  0  0  0
   63.8400    0.9490  137.8910 C   0  0  0  0  0  0
   62.9300    0.1940  138.2390 O   0  0  0  0  0  0
   62.9710    2.1910  135.7890 C   0  0  0  0  0  0
   63.6830    1.0880  134.9230 C   0  0  0  0  0  0
   64.6350    0.4210  135.3820 O   0  0  0  0  0  0
   63.2700    0.8800  133.7550 O   0  0  0  0  0  0
   65.1270    0.6460  138.0530 N   0  0  0  0  0  0
   65.6210   -0.6380  138.5190 C   0  0  2  0  0  0
   65.9620   -0.6680  140.0180 C   0  0  0  0  0  0
   66.6180   -1.6020  140.4760 O   0  0  0  0  0  0
   66.8720   -0.9660  137.7050 C   0  0  0  0  0  0
   67.0990   -2.3810  137.4480 C   0  0  0  0  0  0
   68.0940   -3.1400  137.9490 C   0  0  0  0  0  0
   66.3350   -3.2260  136.5830 C   0  0  0  0  0  0
   68.0010   -4.4240  137.4670 N   0  0  0  0  0  0
   66.9240   -4.5050  136.6250 C   0  0  0  0  0  0
   65.2010   -3.0310  135.7890 C   0  0  0  0  0  0
   66.4180   -5.5920  135.9000 C   0  0  0  0  0  0
   64.7050   -4.1080  135.0560 C   0  0  0  0  0  0
   65.3160   -5.3700  135.1190 C   0  0  0  0  0  0
   65.5640    0.3570  140.7730 N   0  0  0  0  0  0
   65.5490    0.2800  142.2410 C   0  0  2  0  0  0
   64.1590    0.6200  142.7820 C   0  0  0  0  0  0
   63.6530    1.7430  142.6320 O   0  0  0  0  0  0
   66.6190    1.1890  142.8720 C   0  0  0  0  0  0
   67.9200    0.4470  143.1600 C   0  0  0  0  0  0
   68.1990    0.0750  144.2990 O   0  0  0  0  0  0
   68.7040    0.1970  142.1140 N   0  0  0  0  0  0
   63.5360   -0.3780  143.3820 N   0  0  0  0  0  0
   62.2200   -0.2330  143.9880 C   0  0  2  0  0  0
   62.1260   -1.3520  145.0290 C   0  0  0  0  0  0
   62.8060   -2.3620  144.8670 O   0  0  0  0  0  0
   61.1290   -0.3280  142.9110 C   0  0  0  0  0  0
   61.1640   -1.5840  142.0530 C   0  0  0  0  0  0
   61.8120   -1.7640  140.8560 C   0  0  0  0  0  0
   60.5190   -2.7990  142.3350 C   0  0  0  0  0  0
   61.6110   -3.0270  140.3940 N   0  0  0  0  0  0
   60.8180   -3.6860  141.2880 C   0  0  0  0  0  0
   59.7360   -3.2400  143.3890 C   0  0  0  0  0  0
   60.3420   -4.9810  141.2600 C   0  0  0  0  0  0
   59.2700   -4.5180  143.3690 C   0  0  0  0  0  0
   59.5690   -5.3840  142.3120 C   0  0  0  0  0  0
   61.3690   -1.1810  146.1160 N   0  0  0  0  0  0
   61.3940   -2.2190  147.1700 C   0  0  2  0  0  0
   60.0690   -2.9030  147.2420 C   0  0  0  0  0  0
   59.0560   -2.2960  146.9840 O   0  0  0  0  0  0
   61.8660   -1.7200  148.5760 C   0  0  0  0  0  0
   63.3900   -1.7360  148.8650 C   0  0  0  0  0  0
   64.2150   -2.8550  148.1620 C   0  0  0  0  0  0
   63.7410   -4.0150  147.9510 O   0  0  0  0  0  0
   65.3890   -2.5770  147.8170 O   0  0  0  0  0  0
   60.1020   -4.1850  147.5820 N   0  0  0  0  0  0
   58.8850   -4.9350  147.7630 C   0  0  2  0  0  0
   58.2910   -4.3580  149.0230 C   0  0  0  0  0  0
   59.0080   -4.0640  149.9870 O   0  0  0  0  0  0
   59.1310   -6.4230  147.9330 C   0  0  0  0  0  0
   60.1290   -7.0310  146.9600 C   0  0  0  0  0  0
   59.9810   -9.0010  147.0500 Se  0  0  0  0  0  0
   61.8170   -9.5360  147.5500 C   0  0  0  0  0  0
   56.9790   -4.1750  149.0150 N   0  0  0  0  0  0
   56.2580   -3.6130  150.1420 C   0  0  2  0  0  0
   55.5160   -4.7200  150.9030 C   0  0  0  0  0  0
   55.7700   -5.8980  150.6440 O   0  0  0  0  0  0
   55.3840   -2.4670  149.6420 C   0  0  0  0  0  0
   56.2510   -1.2800  149.2200 C   0  0  0  0  0  0
   55.4760    0.0000  148.8850 C   0  0  0  0  0  0
   54.2180    0.0190  148.8570 O   0  0  0  0  0  0
   56.1490    1.0200  148.6300 O   0  0  0  0  0  0
   54.6740   -4.3430  151.8790 N   0  0  0  0  0  0
   54.0570   -5.2620  152.8770 C   0  0  2  0  0  0
   55.1090   -5.9620  153.7820 C   0  0  0  0  0  0
   56.3160   -5.6940  153.7330 O   0  0  0  0  0  0
   53.0970   -6.2930  152.2190 C   0  0  0  0  0  0
   51.6500   -5.7920  152.1030 C   0  0  0  0  0  0
   51.4270   -4.5950  151.8000 O   0  0  0  0  0  0
   50.7350   -6.6250  152.2920 O   0  0  0  0  0  0
   54.7920   -6.8160  154.6180 O   0  0  0  0  0  0
   65.6022    6.3075  137.8949 H   0  0  0  0  0  0
   67.2953    6.4372  138.4807 H   0  0  0  0  0  0
   65.9748    6.0388  139.6315 H   0  0  0  0  0  0
   66.9228    4.3691  137.3073 H   0  0  0  0  0  0
   68.3979    4.6284  139.4543 H   0  0  0  0  0  0
   67.0966    3.7281  140.3045 H   0  0  0  0  0  0
   68.5678    1.2724  137.3572 H   0  0  0  0  0  0
   65.1596    3.5928  136.3366 H   0  0  0  0  0  0
   62.7907    2.8372  137.8695 H   0  0  0  0  0  0
   61.9047    1.9251  135.8363 H   0  0  0  0  0  0
   63.0876    3.1454  135.2546 H   0  0  0  0  0  0
   63.7516    0.1138  133.1296 H   0  0  0  0  0  0
   65.8349    1.4509  137.8061 H   0  0  0  0  0  0
   64.7897   -1.3391  138.3532 H   0  0  0  0  0  0
   66.8075   -0.4783  136.7211 H   0  0  0  0  0  0
   67.7623   -0.6006  138.2377 H   0  0  0  0  0  0
   68.8618   -2.7865  138.6372 H   0  0  0  0  0  0
   64.7145   -2.0566  135.7440 H   0  0  0  0  0  0
   66.8837   -6.5759  135.9557 H   0  0  0  0  0  0
   63.8284   -3.9678  134.4236 H   0  0  0  0  0  0
   64.9038   -6.1915  134.5330 H   0  0  0  0  0  0
   65.2409    1.2789  140.2673 H   0  0  0  0  0  0
   65.7899   -0.7675  142.4748 H   0  0  0  0  0  0
   66.8468    2.0180  142.1858 H   0  0  0  0  0  0
   66.2422    1.5933  143.8231 H   0  0  0  0  0  0
   68.4144    0.5492  141.1130 H   0  0  0  0  0  0
   69.6416   -0.3618  142.2505 H   0  0  0  0  0  0
   64.0518   -1.3491  143.4129 H   0  0  0  0  0  0
   62.1245    0.7578  144.4561 H   0  0  0  0  0  0
   60.1387   -0.3063  143.3894 H   0  0  0  0  0  0
   61.2210    0.5228  142.2198 H   0  0  0  0  0  0
   62.4037   -1.0024  140.3481 H   0  0  0  0  0  0
   59.4975   -2.5753  144.2193 H   0  0  0  0  0  0
   60.5729   -5.6536  140.4339 H   0  0  0  0  0  0
   58.6515   -4.8741  144.1928 H   0  0  0  0  0  0
   59.1773   -6.4011  142.3280 H   0  0  0  0  0  0
   60.7353   -0.2900  146.2365 H   0  0  0  0  0  0
   62.1395   -2.9433  146.8100 H   0  0  0  0  0  0
   61.5533   -0.6750  148.7182 H   0  0  0  0  0  0
   61.4143   -2.3475  149.3584 H   0  0  0  0  0  0
   63.8347   -0.7837  148.5405 H   0  0  0  0  0  0
   63.5572   -1.8700  149.9439 H   0  0  0  0  0  0
   64.3560   -4.7779  147.4512 H   0  0  0  0  0  0
   61.0764   -4.6747  147.7258 H   0  0  0  0  0  0
   58.2603   -4.8193  146.8651 H   0  0  0  0  0  0
   59.5212   -6.6171  148.9430 H   0  0  0  0  0  0
   58.1863   -6.9691  147.7937 H   0  0  0  0  0  0
   59.9040   -6.6853  145.9402 H   0  0  0  0  0  0
   61.1471   -6.7195  147.2365 H   0  0  0  0  0  0
   61.8696  -10.6315  147.6342 H   0  0  0  0  0  0
   62.0813   -9.0809  148.5159 H   0  0  0  0  0  0
   62.5218   -9.1933  146.7781 H   0  0  0  0  0  0
   56.4349   -4.4688  148.1052 H   0  0  0  0  0  0
   56.9869   -3.1871  150.8472 H   0  0  0  0  0  0
   54.7949   -2.8056  148.7770 H   0  0  0  0  0  0
   54.7046   -2.1465  150.4455 H   0  0  0  0  0  0
   56.9448   -1.0248  150.0346 H   0  0  0  0  0  0
   56.8244   -1.5464  148.3199 H   0  0  0  0  0  0
   53.6873    0.9513  148.6136 H   0  0  0  0  0  0
   54.4487   -3.2668  151.9094 H   0  0  0  0  0  0
   53.4634   -4.5821  153.5058 H   0  0  0  0  0  0
   57.0227   -6.2167  154.3943 H   0  0  0  0  0  0
   53.4486   -6.5247  151.2028 H   0  0  0  0  0  0
   53.0803   -7.2141  152.8201 H   0  0  0  0  0  0
   50.3918   -4.2326  151.7160 H   0  0  0  0  0  0
  1  2  1  0  0  0
  1 88  1  0  0  0
  1 89  1  0  0  0
  1 90  1  0  0  0
  2  3  1  0  0  0
  2  5  1  0  0  0
  2 91  1  0  0  0
  3  4  2  0  0  0
  3  9  1  0  0  0
  5  6  1  0  0  0
  5 92  1  0  0  0
  5 93  1  0  0  0
  6  7  1  0  0  0
  6  8  2  0  0  0
  7 94  1  0  0  0
  9 10  1  0  0  0
  9 95  1  0  0  0
 10 11  1  0  0  0
 10 13  1  0  0  0
 10 96  1  0  0  0
 11 12  2  0  0  0
 11 17  1  0  0  0
 13 14  1  0  0  0
 13 97  1  0  0  0
 13 98  1  0  0  0
 14 15  2  0  0  0
 14 16  1  0  0  0
 16 99  1  0  0  0
 17 18  1  0  0  0
 17100  1  0  0  0
 18 19  1  0  0  0
 18 21  1  0  0  0
 18101  1  0  0  0
 19 20  2  0  0  0
 19 31  1  0  0  0
 21 22  1  0  0  0
 21102  1  0  0  0
 21103  1  0  0  0
 22 23  2  0  0  0
 22 24  1  0  0  0
 23 25  1  0  0  0
 23104  1  0  0  0
 24 26  2  0  0  0
 24 27  1  0  0  0
 25 26  1  0  0  0
 26 28  1  0  0  0
 27 29  2  0  0  0
 27105  1  0  0  0
 28 30  2  0  0  0
 28106  1  0  0  0
 29 30  1  0  0  0
 29107  1  0  0  0
 30108  1  0  0  0
 31 32  1  0  0  0
 31109  1  0  0  0
 32 33  1  0  0  0
 32 35  1  0  0  0
 32110  1  0  0  0
 33 34  2  0  0  0
 33 39  1  0  0  0
 35 36  1  0  0  0
 35111  1  0  0  0
 35112  1  0  0  0
 36 37  2  0  0  0
 36 38  1  0  0  0
 38113  1  0  0  0
 38114  1  0  0  0
 39 40  1  0  0  0
 39115  1  0  0  0
 40 41  1  0  0  0
 40 43  1  0  0  0
 40116  1  0  0  0
 41 42  2  0  0  0
 41 53  1  0  0  0
 43 44  1  0  0  0
 43117  1  0  0  0
 43118  1  0  0  0
 44 45  2  0  0  0
 44 46  1  0  0  0
 45 47  1  0  0  0
 45119  1  0  0  0
 46 48  2  0  0  0
 46 49  1  0  0  0
 47 48  1  0  0  0
 48 50  1  0  0  0
 49 51  2  0  0  0
 49120  1  0  0  0
 50 52  2  0  0  0
 50121  1  0  0  0
 51 52  1  0  0  0
 51122  1  0  0  0
 52123  1  0  0  0
 53 54  1  0  0  0
 53124  1  0  0  0
 54 55  1  0  0  0
 54 57  1  0  0  0
 54125  1  0  0  0
 55 56  2  0  0  0
 55 62  1  0  0  0
 57 58  1  0  0  0
 57126  1  0  0  0
 57127  1  0  0  0
 58 59  1  0  0  0
 58128  1  0  0  0
 58129  1  0  0  0
 59 60  1  0  0  0
 59 61  2  0  0  0
 60130  1  0  0  0
 62 63  1  0  0  0
 62131  1  0  0  0
 63 64  1  0  0  0
 63 66  1  0  0  0
 63132  1  0  0  0
 64 65  2  0  0  0
 64 70  1  0  0  0
 66 67  1  0  0  0
 66133  1  0  0  0
 66134  1  0  0  0
 67 68  1  0  0  0
 67135  1  0  0  0
 67136  1  0  0  0
 68 69  1  0  0  0
 69137  1  0  0  0
 69138  1  0  0  0
 69139  1  0  0  0
 70 71  1  0  0  0
 70140  1  0  0  0
 71 72  1  0  0  0
 71 74  1  0  0  0
 71141  1  0  0  0
 72 73  2  0  0  0
 72 79  1  0  0  0
 74 75  1  0  0  0
 74142  1  0  0  0
 74143  1  0  0  0
 75 76  1  0  0  0
 75144  1  0  0  0
 75145  1  0  0  0
 76 77  1  0  0  0
 76 78  2  0  0  0
 77146  1  0  0  0
 79 80  1  0  0  0
 79147  1  0  0  0
 80 81  1  0  0  0
 80 83  1  0  0  0
 80148  1  0  0  0
 81 82  1  0  0  0
 81 87  2  0  0  0
 82149  1  0  0  0
 83 84  1  0  0  0
 83150  1  0  0  0
 83151  1  0  0  0
 84 85  1  0  0  0
 84 86  2  0  0  0
 85152  1  0  0  0
M  CHG  1   1   1
M  END
> <s_m_source_file>
../5fjw_ligand.sdf

> <i_m_source_file_index>
1

> <s_epik_input>
W09IXUMoPU8pW0NIMl1bQ0BIXShbTkgzK10pQyg9TylbTkhdW0NAQEhdKFtDSDJdQyg9TylbT0hdKUMoPU8pW05IXVtDQEBIXShbQ0gyXWMxW2NIXVtuSF1jKGMxMilbY0hdW2NIXVtjSF1bY0hdMilDKD1PKVtOSF1bQ0BASF0oW0NIMl1DKD1PKVtOSDJdKUMoPU8pW05IXVtDQEBIXShbQ0gyXWMzW2NIXVtuSF1jKGMzNClbY0hdW2NIXVtjSF1bY0hdNClDKD1PKVtOSF1bQ0BASF0oW0NIMl1bQ0gyXUMoPU8pW09IXSlDKD1PKVtOSF1bQ0BASF0oW0NIMl1bQ0gyXVtTZV1bQ0gzXSlDKD1PKVtOSF1bQ0BASF0oW0NIMl1bQ0gyXUMoPU8pW09IXSlDKD1PKVtOSF1bQ0BIXShDKD1PKVtPSF0pW0NIMl1DKD1PKVtPSF0=

> <s_epik_cmdline>
J2VwaWtfYXBwJywgJy1pbWFlJywgJ2xpZ2FuZF9wcm8ubWFlJywgJy1vbWFlJywgJ2xpZ2FuZF9wcmVwLm1hZScsICctbXMnLCAnMScsICctcGgnLCAnNycsICctcGh0JywgJzAuNScsICctbnQn

> <s_epik_pKa_notes>
Molecule size exceeds maximum supported for generating protonation states

$$$$
