5fjx_ligand
                    3D
 Schrodinger Suite 2020-3.
 93 95  0  0  1  0            999 V2000
   20.4230   -9.2580  -23.5930 N   0  3  0  0  0  0
   21.9210   -9.2610  -23.6940 C   0  0  2  0  0  0
   22.4020  -10.2930  -24.7400 C   0  0  0  0  0  0
   21.6070  -10.7300  -25.5790 O   0  0  0  0  0  0
   22.5510   -9.4820  -22.3060 C   0  0  0  0  0  0
   22.0250   -8.5240  -21.2390 C   0  0  0  0  0  0
   22.9010   -8.4640  -19.9940 C   0  0  0  0  0  0
   24.1260   -7.5860  -20.2070 C   0  0  0  0  0  0
   24.9270   -7.4230  -18.9600 N   0  3  0  0  0  0
   23.6850  -10.6640  -24.7080 N   0  0  0  0  0  0
   24.3080  -11.4520  -25.7760 C   0  0  2  0  0  0
   24.7990  -12.8660  -25.3440 C   0  0  0  0  0  0
   25.3700  -13.0320  -24.2620 O   0  0  0  0  0  0
   25.5000  -10.6630  -26.3400 C   0  0  0  0  0  0
   25.2190   -9.2370  -26.8920 C   0  0  0  0  0  0
   25.4650   -8.0480  -26.2530 C   0  0  0  0  0  0
   24.7100   -8.8830  -28.1980 C   0  0  0  0  0  0
   25.1250   -6.9940  -27.0640 N   0  3  0  0  0  0
   24.6590   -7.4750  -28.2580 C   0  0  0  0  0  0
   24.2840   -9.6210  -29.3150 C   0  0  0  0  0  0
   24.1990   -6.7900  -29.3860 C   0  0  0  0  0  0
   23.8270   -8.9370  -30.4410 C   0  0  0  0  0  0
   23.7910   -7.5360  -30.4650 C   0  0  0  0  0  0
   24.5990  -13.8640  -26.2120 N   0  0  0  0  0  0
   25.0690  -15.2380  -25.9790 C   0  0  2  0  0  0
   26.5730  -15.3270  -26.1950 C   0  0  0  0  0  0
   27.0410  -15.0870  -27.3050 O   0  0  0  0  0  0
   24.4110  -16.2280  -26.9560 C   0  0  0  0  0  0
   22.8950  -16.3370  -26.7870 C   0  0  0  0  0  0
   22.3480  -15.9030  -25.7440 O   0  5  0  0  0  0
   22.2510  -16.8770  -27.7170 O   0  0  0  0  0  0
   27.3210  -15.6970  -25.1540 N   0  0  0  0  0  0
   28.7840  -15.8270  -25.2560 C   0  0  2  0  0  0
   29.2210  -17.0130  -26.1260 C   0  0  0  0  0  0
   28.6180  -18.0940  -26.0980 O   0  0  0  0  0  0
   29.4400  -15.9330  -23.8670 C   0  0  0  0  0  0
   29.4700  -14.5990  -23.1230 C   0  0  0  0  0  0
   29.8660  -13.5840  -23.7410 O   0  0  0  0  0  0
   29.1190  -14.5680  -21.9190 O   0  5  0  0  0  0
   30.2640  -16.7740  -26.9150 N   0  0  0  0  0  0
   30.9180  -17.8110  -27.7220 C   0  0  2  0  0  0
   32.3740  -17.4030  -28.0560 C   0  0  0  0  0  0
   33.0320  -17.9570  -28.9430 O   0  0  0  0  0  0
   30.0870  -18.1480  -28.9910 C   0  0  0  0  0  0
   30.0750  -17.0580  -30.0400 C   0  0  0  0  0  0
   29.1440  -16.0310  -29.9820 C   0  0  0  0  0  0
   30.9930  -17.0690  -31.1000 C   0  0  0  0  0  0
   29.1380  -15.0260  -30.9410 C   0  0  0  0  0  0
   30.9890  -16.0680  -32.0630 C   0  0  0  0  0  0
   30.0590  -15.0450  -31.9860 C   0  0  0  0  0  0
   32.9490  -16.4980  -27.4330 O   0  5  0  0  0  0
   19.9885   -9.0993  -24.5910 H   0  0  0  0  0  0
   20.1025   -8.4486  -22.9206 H   0  0  0  0  0  0
   20.0805  -10.2239  -23.1933 H   0  0  0  0  0  0
   22.2291   -8.2657  -24.0467 H   0  0  0  0  0  0
   22.3362  -10.5054  -21.9646 H   0  0  0  0  0  0
   23.6396   -9.3379  -22.3703 H   0  0  0  0  0  0
   21.9712   -7.5067  -21.6540 H   0  0  0  0  0  0
   21.0216   -8.8440  -20.9214 H   0  0  0  0  0  0
   22.3203   -8.0496  -19.1567 H   0  0  0  0  0  0
   23.2428   -9.4775  -19.7370 H   0  0  0  0  0  0
   24.7736   -8.0395  -20.9718 H   0  0  0  0  0  0
   23.8078   -6.5875  -20.5412 H   0  0  0  0  0  0
   25.7979   -6.7830  -19.1647 H   0  0  0  0  0  0
   25.2699   -8.4089  -18.6130 H   0  0  0  0  0  0
   24.3041   -6.9569  -18.1824 H   0  0  0  0  0  0
   24.2786  -10.3543  -23.8352 H   0  0  0  0  0  0
   23.4889  -11.5780  -26.4993 H   0  0  0  0  0  0
   26.2552  -10.5265  -25.5519 H   0  0  0  0  0  0
   25.9428  -11.2183  -27.1800 H   0  0  0  0  0  0
   25.8780   -8.0467  -25.2335 H   0  0  0  0  0  0
   24.3103  -10.7106  -29.3017 H   0  0  0  0  0  0
   24.1651   -5.7008  -29.4089 H   0  0  0  0  0  0
   23.4936   -9.4989  -31.3135 H   0  0  0  0  0  0
   23.4314   -7.0273  -31.3594 H   0  0  0  0  0  0
   24.0546  -13.6181  -27.1357 H   0  0  0  0  0  0
   24.7940  -15.4538  -24.9360 H   0  0  0  0  0  0
   24.6043  -15.9060  -27.9899 H   0  0  0  0  0  0
   24.8323  -17.2321  -26.7998 H   0  0  0  0  0  0
   26.8153  -15.9072  -24.2000 H   0  0  0  0  0  0
   29.0814  -14.8930  -25.7552 H   0  0  0  0  0  0
   28.8779  -16.6493  -23.2498 H   0  0  0  0  0  0
   30.4781  -16.2796  -23.9773 H   0  0  0  0  0  0
   30.6343  -15.7386  -26.9450 H   0  0  0  0  0  0
   30.9414  -18.7042  -27.0803 H   0  0  0  0  0  0
   30.4983  -19.0487  -29.4701 H   0  0  0  0  0  0
   29.0402  -18.3297  -28.7062 H   0  0  0  0  0  0
   28.4102  -16.0125  -29.1762 H   0  0  0  0  0  0
   31.7218  -17.8765  -31.1694 H   0  0  0  0  0  0
   28.4089  -14.2184  -30.8755 H   0  0  0  0  0  0
   31.7149  -16.0877  -32.8759 H   0  0  0  0  0  0
   30.0476  -14.2579  -32.7399 H   0  0  0  0  0  0
   25.2498   -5.9616  -26.7055 H   0  0  0  0  0  0
  1  2  1  0  0  0
  1 52  1  0  0  0
  1 53  1  0  0  0
  1 54  1  0  0  0
  2  3  1  0  0  0
  2  5  1  0  0  0
  2 55  1  0  0  0
  3  4  2  0  0  0
  3 10  1  0  0  0
  5  6  1  0  0  0
  5 56  1  0  0  0
  5 57  1  0  0  0
  6  7  1  0  0  0
  6 58  1  0  0  0
  6 59  1  0  0  0
  7  8  1  0  0  0
  7 60  1  0  0  0
  7 61  1  0  0  0
  8  9  1  0  0  0
  8 62  1  0  0  0
  8 63  1  0  0  0
  9 64  1  0  0  0
  9 65  1  0  0  0
  9 66  1  0  0  0
 10 11  1  0  0  0
 10 67  1  0  0  0
 11 12  1  0  0  0
 11 14  1  0  0  0
 11 68  1  0  0  0
 12 13  2  0  0  0
 12 24  1  0  0  0
 14 15  1  0  0  0
 14 69  1  0  0  0
 14 70  1  0  0  0
 15 16  2  0  0  0
 15 17  1  0  0  0
 16 18  1  0  0  0
 16 71  1  0  0  0
 17 19  2  0  0  0
 17 20  1  0  0  0
 18 19  1  0  0  0
 18 93  1  0  0  0
 19 21  1  0  0  0
 20 22  2  0  0  0
 20 72  1  0  0  0
 21 23  2  0  0  0
 21 73  1  0  0  0
 22 23  1  0  0  0
 22 74  1  0  0  0
 23 75  1  0  0  0
 24 25  1  0  0  0
 24 76  1  0  0  0
 25 26  1  0  0  0
 25 28  1  0  0  0
 25 77  1  0  0  0
 26 27  2  0  0  0
 26 32  1  0  0  0
 28 29  1  0  0  0
 28 78  1  0  0  0
 28 79  1  0  0  0
 29 30  1  0  0  0
 29 31  2  0  0  0
 32 33  1  0  0  0
 32 80  1  0  0  0
 33 34  1  0  0  0
 33 36  1  0  0  0
 33 81  1  0  0  0
 34 35  2  0  0  0
 34 40  1  0  0  0
 36 37  1  0  0  0
 36 82  1  0  0  0
 36 83  1  0  0  0
 37 38  2  0  0  0
 37 39  1  0  0  0
 40 41  1  0  0  0
 40 84  1  0  0  0
 41 42  1  0  0  0
 41 44  1  0  0  0
 41 85  1  0  0  0
 42 43  2  0  0  0
 42 51  1  0  0  0
 44 45  1  0  0  0
 44 86  1  0  0  0
 44 87  1  0  0  0
 45 46  2  0  0  0
 45 47  1  0  0  0
 46 48  1  0  0  0
 46 88  1  0  0  0
 47 49  2  0  0  0
 47 89  1  0  0  0
 48 50  2  0  0  0
 48 90  1  0  0  0
 49 50  1  0  0  0
 49 91  1  0  0  0
 50 92  1  0  0  0
M  CHG  6   1   1   9   1  18   1  30  -1  39  -1  51  -1
M  END
> <s_m_source_file>
../5fjx_ligand.sdf

> <i_m_source_file_index>
1

> <s_epik_input>
W2NIXTFbY0hdW2NIXVtjSF1jKGMxMilbbkhdW2NIXWMyW0NIMl1bQ0BIXShbTkhdQyg9TylbQ0BASF0oW05IMytdKVtDSDJdW0NIMl1bQ0gyXVtDSDJdW05IMytdKUMoPU8pW05IXVtDQEBIXShbQ0gyXUMoPU8pW09IXSlDKD1PKVtOSF1bQ0BASF0oW0NIMl1DKD1PKVtPSF0pQyg9TylbTkhdW0NASF0oQyg9TylbT0hdKVtDSDJdYzNbY0hdW2NIXVtjSF1bY0hdW2NIXTM=

> <s_epik_cmdline>
J2VwaWtfYXBwJywgJy1pbWFlJywgJ2xpZ2FuZF9wcm8ubWFlJywgJy1vbWFlJywgJ2xpZ2FuZF9wcmVwLm1hZScsICctbXMnLCAnMScsICctcGgnLCAnNycsICctcGh0JywgJzAuNScsICctbnQn

> <r_epik_Ionization_Penalty>
  0.1301

> <r_epik_Ionization_Penalty_Charging>
  0.1301

> <r_epik_Ionization_Penalty_Neutral>
  0.0000

> <r_epik_State_Penalty>
  0.1160

> <r_epik_Charging_Adjusted_Penalty>
0.246078011995481

> <i_epik_Tot_Q>
0

> <i_epik_Tot_abs_Q>
6

$$$$
