5fl5_ligand
                    3D
 Schrodinger Suite 2020-3.
 34 36  0  0  1  0            999 V2000
  -27.3240   -6.3810   -0.7270 N   0  0  0  0  0  0
  -27.2570   -5.1820   -1.7780 S   0  0  0  0  0  0
  -26.0130   -4.4750   -1.7520 O   0  0  0  0  0  0
  -27.4720   -5.7370   -3.1010 O   0  0  0  0  0  0
  -28.5550   -4.1680   -1.5510 C   0  0  0  0  0  0
  -29.8910   -4.5730   -1.3570 C   0  0  0  0  0  0
  -30.7670   -3.4690   -1.2530 C   0  0  0  0  0  0
  -30.0670   -2.2610   -1.3730 C   0  0  0  0  0  0
  -28.3810   -2.4670   -1.5890 S   0  0  0  0  0  0
  -30.5930   -0.8640   -1.3700 C   0  0  0  0  0  0
  -29.7320    0.1760   -1.3090 N   0  0  0  0  0  0
  -30.5160    1.3250   -1.4090 N   0  0  0  0  0  0
  -31.8170    0.8410   -1.5290 N   0  0  0  0  0  0
  -31.9020   -0.5020   -1.5580 C   0  0  0  0  0  0
  -32.8250    1.7190   -1.6890 C   0  0  0  0  0  0
  -33.9520    1.4030   -2.4520 C   0  0  0  0  0  0
  -34.9920    2.2900   -2.6750 C   0  0  0  0  0  0
  -34.9520    3.5760   -2.1450 C   0  0  0  0  0  0
  -33.8430    3.9390   -1.3740 C   0  0  0  0  0  0
  -32.8040    3.0250   -1.1650 C   0  0  0  0  0  0
  -35.9810    4.4740   -2.3410 O   0  0  0  0  0  0
  -37.2290    4.1140   -2.9720 C   0  0  0  0  0  0
  -26.4644   -7.0503   -0.8791 H   0  0  0  0  0  0
  -28.2576   -6.9443   -0.8724 H   0  0  0  0  0  0
  -30.2103   -5.6133   -1.2946 H   0  0  0  0  0  0
  -31.8434   -3.5467   -1.0999 H   0  0  0  0  0  0
  -32.7792   -1.1344   -1.6947 H   0  0  0  0  0  0
  -34.0159    0.4086   -2.8938 H   0  0  0  0  0  0
  -35.8496    1.9779   -3.2710 H   0  0  0  0  0  0
  -33.7878    4.9353   -0.9352 H   0  0  0  0  0  0
  -31.9440    3.3372   -0.5726 H   0  0  0  0  0  0
  -37.8863    4.9950   -3.0138 H   0  0  0  0  0  0
  -37.7181    3.3189   -2.3901 H   0  0  0  0  0  0
  -37.0332    3.7538   -3.9928 H   0  0  0  0  0  0
  1  2  1  0  0  0
  1 23  1  0  0  0
  1 24  1  0  0  0
  2  3  2  0  0  0
  2  4  2  0  0  0
  2  5  1  0  0  0
  5  6  2  0  0  0
  5  9  1  0  0  0
  6  7  1  0  0  0
  6 25  1  0  0  0
  7  8  2  0  0  0
  7 26  1  0  0  0
  8  9  1  0  0  0
  8 10  1  0  0  0
 10 11  1  0  0  0
 10 14  2  0  0  0
 11 12  2  0  0  0
 12 13  1  0  0  0
 13 14  1  0  0  0
 13 15  1  0  0  0
 14 27  1  0  0  0
 15 16  2  0  0  0
 15 20  1  0  0  0
 16 17  1  0  0  0
 16 28  1  0  0  0
 17 18  2  0  0  0
 17 29  1  0  0  0
 18 19  1  0  0  0
 18 21  1  0  0  0
 19 20  2  0  0  0
 19 30  1  0  0  0
 20 31  1  0  0  0
 21 22  1  0  0  0
 22 32  1  0  0  0
 22 33  1  0  0  0
 22 34  1  0  0  0
M  END
> <s_m_source_file>
../5fl5_ligand.sdf

> <i_m_source_file_index>
1

> <s_epik_input>
W05IMl1TKD1PKSg9TyljMVtjSF1bY0hdYyhzMSktYzJubm4oW2NIXTIpLWMzW2NIXVtjSF1jKFtjSF1bY0hdMylPW0NIM10=

> <s_epik_cmdline>
J2VwaWtfYXBwJywgJy1pbWFlJywgJ2xpZ2FuZF9wcm8ubWFlJywgJy1vbWFlJywgJ2xpZ2FuZF9wcmVwLm1hZScsICctbXMnLCAnMScsICctcGgnLCAnNycsICctcGh0JywgJzAuNScsICctbnQn

> <r_lp_tautomer_probability>
1

> <r_epik_Ionization_Penalty>
  0.0058

> <r_epik_Ionization_Penalty_Charging>
  0.0000

> <r_epik_Ionization_Penalty_Neutral>
  0.0058

> <r_epik_State_Penalty>
 -0.0000

> <r_epik_Charging_Adjusted_Penalty>
0

> <i_epik_Tot_Q>
0

> <i_epik_Tot_abs_Q>
0

$$$$
