5fwg_ligand
                    3D
 Schrodinger Suite 2020-3.
 61 63  0  0  1  0            999 V2000
   14.3180   14.6610   25.0810 N   0  3  0  0  0  0
   13.8440   15.3410   26.2860 C   0  0  2  0  0  0
   12.8800   16.4410   25.9020 C   0  0  0  0  0  0
   12.0080   16.7320   26.7430 O   0  0  0  0  0  0
   14.9760   16.0080   27.0950 C   0  0  0  0  0  0
   15.6510   15.0970   28.0960 C   0  0  0  0  0  0
   16.7850   15.7920   28.7200 C   0  0  0  0  0  0
   17.9520   15.4490   28.6620 O   0  0  0  0  0  0
   13.0140   16.9340   24.7520 O   0  5  0  0  0  0
   16.4380   16.2920   29.8870 N   0  0  0  0  0  0
   17.5010   16.8170   30.7190 C   0  0  2  0  0  0
   17.3790   16.2100   32.1160 C   0  0  0  0  0  0
   18.0980   16.6100   33.0470 O   0  0  0  0  0  0
   16.7190   18.1990   30.8250 C   0  0  0  0  0  0
   17.1620   18.9910   29.3910 S   0  0  0  0  0  0
   18.8650   18.6760   29.6080 C   0  0  2  0  0  0
   19.4940   19.8050   30.3770 C   0  0  0  0  0  0
   19.7950   19.5090   31.7290 C   0  0  0  0  0  0
   20.3790   20.5490   32.5010 C   0  0  0  0  0  0
   20.6580   21.8290   31.9850 C   0  0  0  0  0  0
   20.3610   22.0730   30.6030 C   0  0  0  0  0  0
   19.7830   21.0580   29.8250 C   0  0  0  0  0  0
   19.4740   21.2290   28.4890 C   0  0  0  0  0  0
   19.2100   22.5400   27.9820 C   0  0  0  0  0  0
   18.8770   22.7030   26.6540 C   0  0  0  0  0  0
   18.8600   21.4920   25.7890 C   0  0  0  0  0  0
   19.1340   20.1550   26.2510 C   0  0  0  0  0  0
   19.4580   20.0750   27.6990 C   0  0  0  0  0  0
   19.7540   18.7240   28.4080 C   0  0  1  0  0  0
   21.1050   18.5790   28.9880 O   0  0  0  0  0  0
   16.4460   15.2490   32.2190 N   0  0  0  0  0  0
   16.1470   14.5780   33.4720 C   0  0  0  0  0  0
   17.0470   13.4030   33.7930 C   0  0  0  0  0  0
   18.0480   13.2090   33.0650 O   0  5  0  0  0  0
   16.7250   12.7190   34.7850 O   0  0  0  0  0  0
   13.4639   14.2099   24.5546 H   0  0  0  0  0  0
   15.0331   13.8737   25.3616 H   0  0  0  0  0  0
   14.8134   15.3880   24.4206 H   0  0  0  0  0  0
   13.3681   14.5352   26.8642 H   0  0  0  0  0  0
   15.7577   16.3634   26.4075 H   0  0  0  0  0  0
   14.5699   16.8598   27.6603 H   0  0  0  0  0  0
   14.9293   14.8090   28.8746 H   0  0  0  0  0  0
   16.0162   14.1951   27.5830 H   0  0  0  0  0  0
   15.3968   16.3230   30.2403 H   0  0  0  0  0  0
   18.5346   16.6856   30.3664 H   0  0  0  0  0  0
   15.6380   18.0048   30.8866 H   0  0  0  0  0  0
   17.0467   18.7375   31.7264 H   0  0  0  0  0  0
   18.9893   17.6735   30.0434 H   0  0  0  0  0  0
   19.5881   18.5284   32.1575 H   0  0  0  0  0  0
   20.6230   20.3460   33.5438 H   0  0  0  0  0  0
   21.0856   22.6089   32.6150 H   0  0  0  0  0  0
   20.5834   23.0432   30.1587 H   0  0  0  0  0  0
   19.2717   23.4055   28.6418 H   0  0  0  0  0  0
   18.6342   23.6862   26.2510 H   0  0  0  0  0  0
   18.6240   21.6257   24.7333 H   0  0  0  0  0  0
   19.1062   19.2824   25.5983 H   0  0  0  0  0  0
   19.6389   17.9209   27.6652 H   0  0  0  0  0  0
   21.3847   17.6492   29.5050 H   0  0  0  0  0  0
   15.8991   14.9757   31.3046 H   0  0  0  0  0  0
   16.2481   15.2914   34.3032 H   0  0  0  0  0  0
   15.1177   14.1909   33.4442 H   0  0  0  0  0  0
  1  2  1  0  0  0
  1 36  1  0  0  0
  1 37  1  0  0  0
  1 38  1  0  0  0
  2  3  1  0  0  0
  2  5  1  0  0  0
  2 39  1  0  0  0
  3  4  2  0  0  0
  3  9  1  0  0  0
  5  6  1  0  0  0
  5 40  1  0  0  0
  5 41  1  0  0  0
  6  7  1  0  0  0
  6 42  1  0  0  0
  6 43  1  0  0  0
  7  8  2  0  0  0
  7 10  1  0  0  0
 10 11  1  0  0  0
 10 44  1  0  0  0
 11 12  1  0  0  0
 11 14  1  0  0  0
 11 45  1  0  0  0
 12 13  2  0  0  0
 12 31  1  0  0  0
 14 15  1  0  0  0
 14 46  1  0  0  0
 14 47  1  0  0  0
 15 16  1  0  0  0
 16 17  1  0  0  0
 16 29  1  0  0  0
 16 48  1  0  0  0
 17 18  2  0  0  0
 17 22  1  0  0  0
 18 19  1  0  0  0
 18 49  1  0  0  0
 19 20  2  0  0  0
 19 50  1  0  0  0
 20 21  1  0  0  0
 20 51  1  0  0  0
 21 22  2  0  0  0
 21 52  1  0  0  0
 22 23  1  0  0  0
 23 24  2  0  0  0
 23 28  1  0  0  0
 24 25  1  0  0  0
 24 53  1  0  0  0
 25 26  2  0  0  0
 25 54  1  0  0  0
 26 27  1  0  0  0
 26 55  1  0  0  0
 27 28  2  0  0  0
 27 56  1  0  0  0
 28 29  1  0  0  0
 29 30  1  0  0  0
 29 57  1  0  0  0
 30 58  1  0  0  0
 31 32  1  0  0  0
 31 59  1  0  0  0
 32 33  1  0  0  0
 32 60  1  0  0  0
 32 61  1  0  0  0
 33 34  1  0  0  0
 33 35  2  0  0  0
M  CHG  3   1   1   9  -1  34  -1
M  END
> <s_m_source_file>
../5fwg_ligand.sdf

> <i_m_source_file_index>
1

> <s_epik_input>
Tz1DKFtPSF0pW0NAQEhdKFtOSDMrXSlbQ0gyXVtDSDJdQyg9TylbTkhdW0NASF0oQyg9TylbTkhdW0NIMl1DKD1PKVtPSF0pW0NIMl1TW0NASF0xW0NASF0oW09IXSljKFtjSF1bY0hdW2NIXVtjSF0yKWMyYyhjMTMpW2NIXVtjSF1bY0hdW2NIXTM=

> <s_epik_cmdline>
J2VwaWtfYXBwJywgJy1pbWFlJywgJ2xpZ2FuZF9wcm8ubWFlJywgJy1vbWFlJywgJ2xpZ2FuZF9wcmVwLm1hZScsICctbXMnLCAnMScsICctcGgnLCAnNycsICctcGh0JywgJzAuNScsICctbnQn

> <r_lp_tautomer_probability>
1

> <r_epik_Ionization_Penalty>
  0.0025

> <r_epik_Ionization_Penalty_Charging>
  0.0025

> <r_epik_Ionization_Penalty_Neutral>
  0.0000

> <r_epik_State_Penalty>
 -0.0000

> <r_epik_Charging_Adjusted_Penalty>
0.00251955541370068

> <i_epik_Tot_Q>
-1

> <i_epik_Tot_abs_Q>
3

$$$$
