5hvp_ligand
                    3D
 Schrodinger Suite 2020-3.
101100  0  0  1  0            999 V2000
    4.9490   27.7580    6.7930 C   0  0  0  0  0  0
    4.8000   26.6780    7.3930 O   0  0  0  0  0  0
    4.1710   29.0120    7.1160 C   0  0  0  0  0  0
    5.9300   27.8410    5.8690 N   0  0  0  0  0  0
    6.6880   26.5740    5.6270 C   0  0  2  0  0  0
    8.1830   26.7930    5.8600 C   0  0  0  0  0  0
    8.6900   27.9100    5.6750 O   0  0  0  0  0  0
    6.5290   26.1780    4.1390 C   0  0  0  0  0  0
    7.6860   25.2560    3.6850 C   0  0  0  0  0  0
    5.1660   25.5630    3.8050 C   0  0  0  0  0  0
    8.8380   25.6700    6.1850 N   0  0  0  0  0  0
   10.3010   25.6890    6.4340 C   0  0  2  0  0  0
   10.9780   24.5530    5.7000 C   0  0  0  0  0  0
   10.5690   23.3860    5.7170 O   0  0  0  0  0  0
   10.4180   25.5900    7.9830 C   0  0  0  0  0  0
   11.7990   25.1850    8.4800 C   0  0  0  0  0  0
    9.8950   26.9110    8.6210 C   0  0  0  0  0  0
   12.1260   24.8780    5.0080 N   0  0  0  0  0  0
   12.8460   23.6430    4.4970 C   0  0  1  0  0  0
   12.2280   23.4170    3.0920 C   0  0  0  0  0  0
   10.7750   23.8680    2.8430 C   0  0  0  0  0  0
   10.4850   24.2640    1.3860 C   0  0  0  0  0  0
    9.7060   22.8460    3.3260 C   0  0  0  0  0  0
   14.3770   23.7830    4.6590 C   0  0  1  0  0  0
   14.6900   25.0860    5.2140 O   0  0  0  0  0  0
   15.0730   22.7550    5.6340 C   0  0  0  0  0  0
   14.7670   21.2860    5.3040 C   0  0  0  0  0  0
   13.6660   20.7390    5.5240 O   0  0  0  0  0  0
   15.8270   20.6740    4.7660 N   0  0  0  0  0  0
   16.2270   19.2820    5.0450 C   0  0  2  0  0  0
   17.7040   19.1620    5.3970 C   0  0  0  0  0  0
   18.6570   19.7380    4.8550 O   0  0  0  0  0  0
   15.8550   18.4330    3.7970 C   0  0  0  0  0  0
   17.9130   18.3890    6.4650 N   0  0  0  0  0  0
   19.2160   17.9340    6.9520 C   0  0  1  0  0  0
   19.4160   18.4410    8.4250 C   0  0  0  0  0  0
   19.4920   19.9880    8.5850 C   0  0  0  0  0  0
   18.0690   20.5930    8.5530 C   0  0  0  0  0  0
   20.2460   20.4040    9.8540 C   0  0  0  0  0  0
   19.2480   16.4000    6.7170 C   0  0  1  0  0  0
   18.0830   15.7450    7.2880 O   0  0  0  0  0  0
   19.3170   15.9940    5.2110 C   0  0  0  0  0  0
   20.3470   14.8580    5.0010 C   0  0  0  0  0  0
   20.9360   14.3020    5.9360 O   0  0  0  0  0  0
   20.5730   14.5520    3.7030 O   0  5  0  0  0  0
    3.4128   28.7864    7.8803 H   0  0  0  0  0  0
    3.6757   29.3808    6.2057 H   0  0  0  0  0  0
    4.8581   29.7818    7.4971 H   0  0  0  0  0  0
    6.1889   28.7522    5.3098 H   0  0  0  0  0  0
    6.2897   25.8229    6.3250 H   0  0  0  0  0  0
    6.5676   27.1150    3.5641 H   0  0  0  0  0  0
    8.6487   25.7241    3.9381 H   0  0  0  0  0  0
    7.6275   25.1028    2.5973 H   0  0  0  0  0  0
    7.6041   24.2858    4.1969 H   0  0  0  0  0  0
    4.3663   26.2403    4.1393 H   0  0  0  0  0  0
    5.0649   24.5951    4.3178 H   0  0  0  0  0  0
    5.0883   25.4121    2.7182 H   0  0  0  0  0  0
    8.2784   24.7265    6.2664 H   0  0  0  0  0  0
   10.7820   26.5907    6.0270 H   0  0  0  0  0  0
    9.8020   24.7462    8.3272 H   0  0  0  0  0  0
   12.1047   24.2484    7.9907 H   0  0  0  0  0  0
   11.7675   25.0362    9.5694 H   0  0  0  0  0  0
   12.5225   25.9777    8.2389 H   0  0  0  0  0  0
    8.8976   27.1426    8.2190 H   0  0  0  0  0  0
   10.5865   27.7324    8.3820 H   0  0  0  0  0  0
    9.8315   26.7909    9.7126 H   0  0  0  0  0  0
   12.5383   25.8777    4.8067 H   0  0  0  0  0  0
   12.6917   22.7244    5.0822 H   0  0  0  0  0  0
   12.8212   23.9571    2.3394 H   0  0  0  0  0  0
   12.2309   22.3420    2.8587 H   0  0  0  0  0  0
   10.6956   24.7781    3.4557 H   0  0  0  0  0  0
   11.2411   24.9866    1.0450 H   0  0  0  0  0  0
    9.4863   24.7206    1.3220 H   0  0  0  0  0  0
   10.5202   23.3682    0.7486 H   0  0  0  0  0  0
    9.9139   22.5630    4.3684 H   0  0  0  0  0  0
    9.7411   21.9500    2.6888 H   0  0  0  0  0  0
    8.7072   23.3024    3.2622 H   0  0  0  0  0  0
   14.7675   23.6820    3.6356 H   0  0  0  0  0  0
   14.3206   25.9971    4.7206 H   0  0  0  0  0  0
   16.1644   22.8816    5.5820 H   0  0  0  0  0  0
   14.7314   22.9372    6.6636 H   0  0  0  0  0  0
   16.4181   21.2871    4.0698 H   0  0  0  0  0  0
   15.6862   18.9575    5.9463 H   0  0  0  0  0  0
   14.7828   18.5497    3.5805 H   0  0  0  0  0  0
   16.0759   17.3738    3.9950 H   0  0  0  0  0  0
   16.4430   18.7748    2.9325 H   0  0  0  0  0  0
   16.9946   18.0934    6.9933 H   0  0  0  0  0  0
   20.0412   18.3747    6.3734 H   0  0  0  0  0  0
   18.5748   18.1013    9.0471 H   0  0  0  0  0  0
   20.3564   18.0365    8.8275 H   0  0  0  0  0  0
   20.0727   20.3980    7.7455 H   0  0  0  0  0  0
   17.5565   20.2762    7.6327 H   0  0  0  0  0  0
   18.1367   21.6907    8.5758 H   0  0  0  0  0  0
   17.5018   20.2424    9.4278 H   0  0  0  0  0  0
   21.2516   19.9583    9.8457 H   0  0  0  0  0  0
   19.6961   20.0519   10.7392 H   0  0  0  0  0  0
   20.3310   21.5002    9.8872 H   0  0  0  0  0  0
   20.1284   16.0308    7.2634 H   0  0  0  0  0  0
   17.8357   15.8902    8.3500 H   0  0  0  0  0  0
   18.3280   15.6446    4.8798 H   0  0  0  0  0  0
   19.6185   16.8646    4.6100 H   0  0  0  0  0  0
  1  2  2  0  0  0
  1  3  1  0  0  0
  1  4  1  0  0  0
  3 46  1  0  0  0
  3 47  1  0  0  0
  3 48  1  0  0  0
  4  5  1  0  0  0
  4 49  1  0  0  0
  5  6  1  0  0  0
  5  8  1  0  0  0
  5 50  1  0  0  0
  6  7  2  0  0  0
  6 11  1  0  0  0
  8  9  1  0  0  0
  8 10  1  0  0  0
  8 51  1  0  0  0
  9 52  1  0  0  0
  9 53  1  0  0  0
  9 54  1  0  0  0
 10 55  1  0  0  0
 10 56  1  0  0  0
 10 57  1  0  0  0
 11 12  1  0  0  0
 11 58  1  0  0  0
 12 13  1  0  0  0
 12 15  1  0  0  0
 12 59  1  0  0  0
 13 14  2  0  0  0
 13 18  1  0  0  0
 15 16  1  0  0  0
 15 17  1  0  0  0
 15 60  1  0  0  0
 16 61  1  0  0  0
 16 62  1  0  0  0
 16 63  1  0  0  0
 17 64  1  0  0  0
 17 65  1  0  0  0
 17 66  1  0  0  0
 18 19  1  0  0  0
 18 67  1  0  0  0
 19 20  1  0  0  0
 19 24  1  0  0  0
 19 68  1  0  0  0
 20 21  1  0  0  0
 20 69  1  0  0  0
 20 70  1  0  0  0
 21 22  1  0  0  0
 21 23  1  0  0  0
 21 71  1  0  0  0
 22 72  1  0  0  0
 22 73  1  0  0  0
 22 74  1  0  0  0
 23 75  1  0  0  0
 23 76  1  0  0  0
 23 77  1  0  0  0
 24 25  1  0  0  0
 24 26  1  0  0  0
 24 78  1  0  0  0
 25 79  1  0  0  0
 26 27  1  0  0  0
 26 80  1  0  0  0
 26 81  1  0  0  0
 27 28  2  0  0  0
 27 29  1  0  0  0
 29 30  1  0  0  0
 29 82  1  0  0  0
 30 31  1  0  0  0
 30 33  1  0  0  0
 30 83  1  0  0  0
 31 32  2  0  0  0
 31 34  1  0  0  0
 33 84  1  0  0  0
 33 85  1  0  0  0
 33 86  1  0  0  0
 34 35  1  0  0  0
 34 87  1  0  0  0
 35 36  1  0  0  0
 35 40  1  0  0  0
 35 88  1  0  0  0
 36 37  1  0  0  0
 36 89  1  0  0  0
 36 90  1  0  0  0
 37 38  1  0  0  0
 37 39  1  0  0  0
 37 91  1  0  0  0
 38 92  1  0  0  0
 38 93  1  0  0  0
 38 94  1  0  0  0
 39 95  1  0  0  0
 39 96  1  0  0  0
 39 97  1  0  0  0
 40 41  1  0  0  0
 40 42  1  0  0  0
 40 98  1  0  0  0
 41 99  1  0  0  0
 42 43  1  0  0  0
 42100  1  0  0  0
 42101  1  0  0  0
 43 44  2  0  0  0
 43 45  1  0  0  0
M  CHG  1  45  -1
M  END
> <s_m_source_file>
../5hvp_ligand.sdf

> <i_m_source_file_index>
1

> <s_epik_input>
Tz1DKFtDSDNdKVtOSF1bQ0BASF0oW0NIXShbQ0gzXSlbQ0gzXSlDKD1PKVtOSF1bQ0BASF0oW0NIXShbQ0gzXSlbQ0gzXSlDKD1PKVtOSF1bQ0BASF0oW0NIMl1bQ0hdKFtDSDNdKVtDSDNdKVtDQEBIXShbT0hdKVtDSDJdQyg9TylbTkhdW0NAQEhdKFtDSDNdKUMoPU8pW05IXVtDQEBIXShbQ0gyXVtDSF0oW0NIM10pW0NIM10pW0NAQEhdKFtPSF0pW0NIMl1DKD1PKVtPSF0=

> <s_epik_cmdline>
J2VwaWtfYXBwJywgJy1pbWFlJywgJ2xpZ2FuZF9wcm8ubWFlJywgJy1vbWFlJywgJ2xpZ2FuZF9wcmVwLm1hZScsICctbXMnLCAnMScsICctcGgnLCAnNycsICctcGh0JywgJzAuNScsICctbnQn

> <r_lp_tautomer_probability>
1

> <r_epik_Ionization_Penalty>
  0.0021

> <r_epik_Ionization_Penalty_Charging>
  0.0021

> <r_epik_Ionization_Penalty_Neutral>
  0.0000

> <r_epik_State_Penalty>
 -0.0000

> <r_epik_Charging_Adjusted_Penalty>
0.00208702823195129

> <i_epik_Tot_Q>
-1

> <i_epik_Tot_abs_Q>
1

$$$$
