5lpr_ligand
                    3D
 Schrodinger Suite 2020-3.
 49 49  0  0  1  0            999 V2000
   13.9020   42.0570   18.2560 N   0  3  0  0  0  0
   14.4150   40.6780   18.0700 C   0  0  2  0  0  0
   13.5250   39.4980   18.4480 C   0  0  0  0  0  0
   12.8230   39.5030   19.4780 O   0  0  0  0  0  0
   15.7280   40.4580   18.8120 C   0  0  0  0  0  0
   13.5630   38.4850   17.5990 N   0  0  0  0  0  0
   12.7270   37.2850   17.8560 C   0  0  2  0  0  0
   13.6010   36.0760   17.4920 C   0  0  0  0  0  0
   14.4650   36.3430   16.6620 O   0  0  0  0  0  0
   11.4930   37.3440   16.9870 C   0  0  0  0  0  0
   13.3030   34.9450   18.1060 N   0  0  0  0  0  0
   14.0870   33.7280   17.7800 C   0  0  2  0  0  0
   13.8220   33.3140   16.3330 C   0  0  0  0  0  0
   12.6300   33.4940   15.9170 O   0  0  0  0  0  0
   13.4620   32.7120   18.7410 C   0  0  0  0  0  0
   12.6230   33.4770   19.7270 C   0  0  0  0  0  0
   12.1690   34.7540   19.0330 C   0  0  0  0  0  0
   14.7600   32.7510   15.5990 N   0  0  0  0  0  0
   14.5530   32.3020   14.1920 C   0  0  1  0  0  0
   15.4040   33.2070   13.2610 C   0  0  0  0  0  0
   14.8050   30.7660   14.0360 B   0  0  0  0  0  0
   14.8240   30.2030   12.6530 O   0  0  0  0  0  0
   13.9120   29.9530   14.9440 O   0  0  0  0  0  0
   12.9564   42.1737   17.7063 H   0  0  0  0  0  0
   14.6399   42.7774   17.8733 H   0  0  0  0  0  0
   13.7292   42.2426   19.3264 H   0  0  0  0  0  0
   14.4906   40.6956   16.9727 H   0  0  0  0  0  0
   16.4214   41.2803   18.5818 H   0  0  0  0  0  0
   16.1730   39.5034   18.4947 H   0  0  0  0  0  0
   15.5371   40.4315   19.8950 H   0  0  0  0  0  0
   14.2070   38.5261   16.7082 H   0  0  0  0  0  0
   12.3924   37.2499   18.9033 H   0  0  0  0  0  0
   10.8872   38.2177   17.2693 H   0  0  0  0  0  0
   10.9017   36.4271   17.1271 H   0  0  0  0  0  0
   11.7914   37.4302   15.9318 H   0  0  0  0  0  0
   15.1733   33.8662   17.8838 H   0  0  0  0  0  0
   12.8386   32.0056   18.1732 H   0  0  0  0  0  0
   14.2592   32.1610   19.2614 H   0  0  0  0  0  0
   11.7565   32.8670   20.0222 H   0  0  0  0  0  0
   13.2258   33.7124   20.6165 H   0  0  0  0  0  0
   12.0896   35.6254   19.6996 H   0  0  0  0  0  0
   11.2382   34.6472   18.4566 H   0  0  0  0  0  0
   15.7404   32.6186   16.0800 H   0  0  0  0  0  0
   13.4940   32.4491   13.9333 H   0  0  0  0  0  0
   15.1541   34.2620   13.4468 H   0  0  0  0  0  0
   15.1887   32.9585   12.2113 H   0  0  0  0  0  0
   16.4721   33.0417   13.4653 H   0  0  0  0  0  0
   15.4301   30.6845   11.8714 H   0  0  0  0  0  0
   13.7920   30.2408   15.9989 H   0  0  0  0  0  0
  1  2  1  0  0  0
  1 24  1  0  0  0
  1 25  1  0  0  0
  1 26  1  0  0  0
  2  3  1  0  0  0
  2  5  1  0  0  0
  2 27  1  0  0  0
  3  4  2  0  0  0
  3  6  1  0  0  0
  5 28  1  0  0  0
  5 29  1  0  0  0
  5 30  1  0  0  0
  6  7  1  0  0  0
  6 31  1  0  0  0
  7  8  1  0  0  0
  7 10  1  0  0  0
  7 32  1  0  0  0
  8  9  2  0  0  0
  8 11  1  0  0  0
 10 33  1  0  0  0
 10 34  1  0  0  0
 10 35  1  0  0  0
 11 12  1  0  0  0
 11 17  1  0  0  0
 12 13  1  0  0  0
 12 15  1  0  0  0
 12 36  1  0  0  0
 13 14  2  0  0  0
 13 18  1  0  0  0
 15 16  1  0  0  0
 15 37  1  0  0  0
 15 38  1  0  0  0
 16 17  1  0  0  0
 16 39  1  0  0  0
 16 40  1  0  0  0
 17 41  1  0  0  0
 17 42  1  0  0  0
 18 19  1  0  0  0
 18 43  1  0  0  0
 19 20  1  0  0  0
 19 21  1  0  0  0
 19 44  1  0  0  0
 20 45  1  0  0  0
 20 46  1  0  0  0
 20 47  1  0  0  0
 21 22  1  0  0  0
 21 23  1  0  0  0
 22 48  1  0  0  0
 23 49  1  0  0  0
M  CHG  1   1   1
M  END
> <s_m_source_file>
../5lpr_ligand.sdf

> <i_m_source_file_index>
1

> <s_epik_input>
W05IMytdW0NAQEhdKFtDSDNdKUMoPU8pW05IXVtDQEBIXShbQ0gzXSlDKD1PKU4xW0NAQEhdKFtDSDJdW0NIMl1bQ0gyXTEpQyg9TylbTkhdW0NAQEhdKFtDSDNdKUIoW09IXSlbT0hd

> <s_epik_cmdline>
J2VwaWtfYXBwJywgJy1pbWFlJywgJ2xpZ2FuZF9wcm8ubWFlJywgJy1vbWFlJywgJ2xpZ2FuZF9wcmVwLm1hZScsICctbXMnLCAnMScsICctcGgnLCAnNycsICctcGh0JywgJzAuNScsICctbnQn

> <r_epik_Ionization_Penalty>
  0.1233

> <r_epik_Ionization_Penalty_Charging>
  0.1233

> <r_epik_Ionization_Penalty_Neutral>
  0.0000

> <r_epik_State_Penalty>
  0.1128

> <r_epik_Charging_Adjusted_Penalty>
0.236084207461101

> <i_epik_Tot_Q>
1

> <i_epik_Tot_abs_Q>
1

> <s_epik_Chemistry_Notes>
This compound contains a Lewis acid (boronic acid) which adds nucleophiles to form tetrahedral complexes, lowering the experimental pKa

$$$$
