5prc_ligand
                    3D
 Schrodinger Suite 2020-3.
 28 28  0  0  1  0            999 V2000
  132.1360   70.9300   -2.6790 N   0  0  0  0  0  0
  131.6490   69.8030   -2.2030 C   0  0  0  0  0  0
  131.2140   69.8750   -0.5110 Cl  0  0  0  0  0  0
  131.4490   68.6260   -2.7890 N   0  0  0  0  0  0
  131.8420   68.6520   -4.1050 C   0  0  0  0  0  0
  132.3550   69.7100   -4.7360 N   0  0  0  0  0  0
  132.4800   70.8130   -3.9950 C   0  0  0  0  0  0
  131.7170   67.5200   -4.8420 N   0  0  0  0  0  0
  131.1960   66.2100   -4.4520 C   0  0  0  0  0  0
  131.8540   65.6470   -3.1750 C   0  0  0  0  0  0
  129.6910   66.2090   -4.4660 C   0  0  0  0  0  0
  132.9920   71.9220   -4.5770 N   0  0  0  0  0  0
  133.2070   73.2080   -3.9260 C   0  0  0  0  0  0
  133.8530   74.1130   -4.9060 C   0  0  0  0  0  0
  132.0784   67.6850   -5.8678 H   0  0  0  0  0  0
  131.4964   65.5226   -5.2565 H   0  0  0  0  0  0
  132.9484   65.6962   -3.2742 H   0  0  0  0  0  0
  131.5453   64.6006   -3.0342 H   0  0  0  0  0  0
  131.5374   66.2428   -2.3062 H   0  0  0  0  0  0
  129.3329   66.6291   -5.4175 H   0  0  0  0  0  0
  129.3162   66.8196   -3.6314 H   0  0  0  0  0  0
  129.3240   65.1775   -4.3594 H   0  0  0  0  0  0
  133.2542   71.7916   -5.6373 H   0  0  0  0  0  0
  132.2400   73.6226   -3.6050 H   0  0  0  0  0  0
  133.8565   73.0709   -3.0489 H   0  0  0  0  0  0
  134.0274   75.0939   -4.4397 H   0  0  0  0  0  0
  133.1973   74.2342   -5.7808 H   0  0  0  0  0  0
  134.8138   73.6825   -5.2248 H   0  0  0  0  0  0
  1  2  2  0  0  0
  1  7  1  0  0  0
  2  3  1  0  0  0
  2  4  1  0  0  0
  4  5  2  0  0  0
  5  6  1  0  0  0
  5  8  1  0  0  0
  6  7  2  0  0  0
  7 12  1  0  0  0
  8  9  1  0  0  0
  8 15  1  0  0  0
  9 10  1  0  0  0
  9 11  1  0  0  0
  9 16  1  0  0  0
 10 17  1  0  0  0
 10 18  1  0  0  0
 10 19  1  0  0  0
 11 20  1  0  0  0
 11 21  1  0  0  0
 11 22  1  0  0  0
 12 13  1  0  0  0
 12 23  1  0  0  0
 13 14  1  0  0  0
 13 24  1  0  0  0
 13 25  1  0  0  0
 14 26  1  0  0  0
 14 27  1  0  0  0
 14 28  1  0  0  0
M  END
> <s_m_source_file>
../5prc_ligand.sdf

> <i_m_source_file_index>
1

> <s_epik_input>
Q2xjMW5jKFtOSF1bQ0gyXVtDSDNdKW5jKG4xKVtOSF1bQ0hdKFtDSDNdKVtDSDNd

> <s_epik_cmdline>
J2VwaWtfYXBwJywgJy1pbWFlJywgJ2xpZ2FuZF9wcm8ubWFlJywgJy1vbWFlJywgJ2xpZ2FuZF9wcmVwLm1hZScsICctbXMnLCAnMScsICctcGgnLCAnNycsICctcGh0JywgJzAuNScsICctbnQn

> <r_lp_tautomer_probability>
1

> <r_epik_Ionization_Penalty>
  0.0001

> <r_epik_Ionization_Penalty_Charging>
  0.0000

> <r_epik_Ionization_Penalty_Neutral>
  0.0001

> <r_epik_State_Penalty>
 -0.0000

> <r_epik_Charging_Adjusted_Penalty>
0

> <i_epik_Tot_Q>
0

> <i_epik_Tot_abs_Q>
0

$$$$
