5tln_ligand
                    3D
 Schrodinger Suite 2020-3.
 44 44  0  0  1  0            999 V2000
   52.3080   20.2090   -6.0410 O   0  0  0  0  0  0
   52.0920   19.3790   -4.8660 N   0  0  0  0  0  0
   53.1210   18.5310   -4.8890 C   0  0  0  0  0  0
   54.0270   18.6030   -5.9340 O   0  0  0  0  0  0
   53.2570   17.5800   -3.7590 C   0  0  1  0  0  0
   52.7250   17.9980   -2.6050 C   0  0  0  0  0  0
   53.4520   18.1170   -1.2700 C   0  0  0  0  0  0
   52.7090   17.7140   -0.2070 C   0  0  0  0  0  0
   54.7020   18.6320   -1.1320 C   0  0  0  0  0  0
   53.2590   17.7950    1.0050 C   0  0  0  0  0  0
   55.2460   18.7080    0.0740 C   0  0  0  0  0  0
   54.5320   18.2770    1.1450 C   0  0  0  0  0  0
   53.7830   16.2760   -3.6710 C   0  0  0  0  0  0
   55.0360   16.1580   -3.6120 O   0  0  0  0  0  0
   52.7620   15.3060   -3.6670 N   0  0  0  0  0  0
   53.2620   13.7940   -3.5870 C   0  0  1  0  0  0
   52.9030   13.1130   -2.4820 C   0  0  0  0  0  0
   53.0410   13.2540   -4.9910 C   0  0  0  0  0  0
   52.2520   14.0660   -5.6090 O   0  0  0  0  0  0
   53.6420   12.1120   -5.4960 N   0  0  0  0  0  0
   53.3610   11.8090   -6.8700 C   0  0  0  0  0  0
   53.9040   10.2230   -6.7880 C   0  0  0  0  0  0
   53.0240    9.9590   -5.7980 O   0  0  0  0  0  0
   51.5995   21.0149   -6.2829 H   0  0  0  0  0  0
   51.2201   19.5573   -4.2194 H   0  0  0  0  0  0
   54.0698   17.2080   -4.4001 H   0  0  0  0  0  0
   52.3517   19.0258   -2.7244 H   0  0  0  0  0  0
   51.8927   17.3360   -2.3238 H   0  0  0  0  0  0
   51.6953   17.3363   -0.3404 H   0  0  0  0  0  0
   55.2526   18.9797   -2.0061 H   0  0  0  0  0  0
   52.6956   17.4779    1.8826 H   0  0  0  0  0  0
   56.2507   19.1102    0.2039 H   0  0  0  0  0  0
   54.9820   18.3157    2.1370 H   0  0  0  0  0  0
   51.6856   15.5276   -3.7141 H   0  0  0  0  0  0
   54.2679   13.5230   -3.2340 H   0  0  0  0  0  0
   53.1613   13.7009   -1.5889 H   0  0  0  0  0  0
   53.4361   12.1512   -2.4547 H   0  0  0  0  0  0
   51.8184   12.9307   -2.4999 H   0  0  0  0  0  0
   54.3002   11.4529   -4.9109 H   0  0  0  0  0  0
   52.2863   11.9430   -7.0626 H   0  0  0  0  0  0
   53.9369   12.4845   -7.5197 H   0  0  0  0  0  0
   53.7486    9.7315   -7.7598 H   0  0  0  0  0  0
   54.9757   10.2147   -6.5402 H   0  0  0  0  0  0
   52.9799    8.9531   -5.3551 H   0  0  0  0  0  0
  1  2  1  0  0  0
  1 24  1  0  0  0
  2  3  1  0  0  0
  2 25  1  0  0  0
  3  4  2  0  0  0
  3  5  1  0  0  0
  5  6  1  0  0  0
  5 13  1  0  0  0
  5 26  1  0  0  0
  6  7  1  0  0  0
  6 27  1  0  0  0
  6 28  1  0  0  0
  7  8  2  0  0  0
  7  9  1  0  0  0
  8 10  1  0  0  0
  8 29  1  0  0  0
  9 11  2  0  0  0
  9 30  1  0  0  0
 10 12  2  0  0  0
 10 31  1  0  0  0
 11 12  1  0  0  0
 11 32  1  0  0  0
 12 33  1  0  0  0
 13 14  2  0  0  0
 13 15  1  0  0  0
 15 16  1  0  0  0
 15 34  1  0  0  0
 16 17  1  0  0  0
 16 18  1  0  0  0
 16 35  1  0  0  0
 17 36  1  0  0  0
 17 37  1  0  0  0
 17 38  1  0  0  0
 18 19  2  0  0  0
 18 20  1  0  0  0
 20 21  1  0  0  0
 20 39  1  0  0  0
 21 22  1  0  0  0
 21 40  1  0  0  0
 21 41  1  0  0  0
 22 23  1  0  0  0
 22 42  1  0  0  0
 22 43  1  0  0  0
 23 44  1  0  0  0
M  END
> <s_m_source_file>
../5tln_ligand.sdf

> <i_m_source_file_index>
1

> <s_epik_input>
W2NIXTFbY0hdW2NIXVtjSF1bY0hdYzFbQ0gyXVtDQEhdKEMoPU8pW05IXVtPSF0pQyg9TylbTkhdW0NAQEhdKFtDSDNdKUMoPU8pW05IXVtDSDJdW0NIMl1bT0hd

> <s_epik_cmdline>
J2VwaWtfYXBwJywgJy1pbWFlJywgJ2xpZ2FuZF9wcm8ubWFlJywgJy1vbWFlJywgJ2xpZ2FuZF9wcmVwLm1hZScsICctbXMnLCAnMScsICctcGgnLCAnNycsICctcGh0JywgJzAuNScsICctbnQn

> <r_epik_Ionization_Penalty>
  0.2422

> <r_epik_Ionization_Penalty_Charging>
  0.0000

> <r_epik_Ionization_Penalty_Neutral>
  0.2422

> <r_epik_State_Penalty>
  0.2242

> <r_epik_Charging_Adjusted_Penalty>
0.22424052051025

> <i_epik_Tot_Q>
0

> <i_epik_Tot_abs_Q>
0

> <s_epik_Chemistry_Notes>
This compound has a N-S or N-O group and may undergo hydrolysis at high or low pH.

$$$$
