6apr_ligand
                    3D
 Schrodinger Suite 2020-3.
110109  0  0  1  0            999 V2000
   52.1939   64.0107  103.4933 O   0  5  0  0  0  0
   38.6450   71.5040  100.9170 C   0  0  0  0  0  0
   37.2650   72.0830  100.9250 C   0  0  0  0  0  0
   37.0180   72.8100   99.5870 C   0  0  0  0  0  0
   36.9240   73.0310  102.0570 C   0  0  0  0  0  0
   39.4620   70.8180  101.9670 C   0  0  0  0  0  0
   40.3590   71.3930  102.6390 O   0  0  0  0  0  0
   39.2070   69.5250  102.1030 N   0  0  0  0  0  0
   39.9690   68.6480  103.0430 C   0  0  2  0  0  0
   40.6500   67.6930  102.0640 C   0  0  0  0  0  0
   40.0140   67.3510  101.0410 O   0  0  0  0  0  0
   39.0310   68.1180  104.1200 C   0  0  0  0  0  0
   38.7020   66.6410  104.0640 C   0  0  0  0  0  0
   39.5410   68.5060  105.5010 C   0  0  0  0  0  0
   41.8990   67.3660  102.3230 N   0  0  0  0  0  0
   42.6160   66.4330  101.4010 C   0  0  2  0  0  0
   43.6010   65.6680  102.2770 C   0  0  0  0  0  0
   44.6980   66.1270  102.5800 O   0  0  0  0  0  0
   43.1070   67.0170  100.0750 C   0  0  0  0  0  0
   43.1930   68.5280   99.9680 C   0  0  0  0  0  0
   44.4100   66.4240   99.5600 C   0  0  0  0  0  0
   43.1110   64.5030  102.6260 N   0  0  0  0  0  0
   43.7320   63.4820  103.4710 C   0  0  1  0  0  0
   42.7990   63.2230  104.6480 C   0  0  0  0  0  0
   42.2430   64.5090  105.3000 C   0  0  0  0  0  0
   41.0760   64.1330  106.2450 C   0  0  0  0  0  0
   43.3490   65.2420  106.0850 C   0  0  0  0  0  0
   44.0900   62.2320  102.6410 C   0  0  1  0  0  0
   42.9050   61.7100  102.0370 O   0  0  0  0  0  0
   45.2090   62.3000  101.6400 C   0  0  0  0  0  0
   46.5140   62.5680  102.4030 C   0  0  0  0  0  0
   46.8060   63.7310  102.5660 O   0  0  0  0  0  0
   47.1900   61.4930  102.7750 N   0  0  0  0  0  0
   48.6310   61.4290  103.0860 C   0  0  2  0  0  0
   49.4080   61.4180  101.7700 C   0  0  0  0  0  0
   49.8910   60.4230  101.2350 O   0  0  0  0  0  0
   48.9840   60.2680  103.9870 C   0  0  0  0  0  0
   49.4570   62.6240  101.2340 N   0  0  0  0  0  0
   50.1240   62.9700   99.9680 C   0  0  1  0  0  0
   49.3160   63.8340   99.0640 C   0  0  0  0  0  0
   48.1780   63.4160   98.1560 C   0  0  0  0  0  0
   47.6090   61.9960   98.3640 C   0  0  0  0  0  0
   46.9690   64.3630   98.4550 C   0  0  0  0  0  0
   51.4780   63.5320  100.5100 C   0  0  1  0  0  0
   52.3740   63.5500   99.3980 O   0  0  0  0  0  0
   51.4450   64.7730  101.3700 C   0  0  0  0  0  0
   52.4890   64.6840  102.4700 C   0  0  0  0  0  0
   53.5890   65.2100  102.4450 O   0  0  0  0  0  0
   38.7041   70.7077  100.1604 H   0  0  0  0  0  0
   39.3724   72.2933  100.6763 H   0  0  0  0  0  0
   36.6286   71.2024  101.0969 H   0  0  0  0  0  0
   37.2609   72.1353   98.7528 H   0  0  0  0  0  0
   37.6557   73.7046   99.5326 H   0  0  0  0  0  0
   35.9613   73.1084   99.5215 H   0  0  0  0  0  0
   37.0946   72.5281  103.0203 H   0  0  0  0  0  0
   35.8677   73.3284  101.9806 H   0  0  0  0  0  0
   37.5622   73.9246  101.9917 H   0  0  0  0  0  0
   38.3979   69.1018  101.4896 H   0  0  0  0  0  0
   40.7394   69.1077  103.6796 H   0  0  0  0  0  0
   38.0657   68.6002  103.9061 H   0  0  0  0  0  0
   38.3363   66.3847  103.0587 H   0  0  0  0  0  0
   37.9244   66.4102  104.8070 H   0  0  0  0  0  0
   39.6063   66.0553  104.2856 H   0  0  0  0  0  0
   39.7730   69.5811  105.5175 H   0  0  0  0  0  0
   40.4502   67.9312  105.7309 H   0  0  0  0  0  0
   38.7683   68.2860  106.2524 H   0  0  0  0  0  0
   42.4149   67.7711  103.2060 H   0  0  0  0  0  0
   41.9012   65.7248  100.9565 H   0  0  0  0  0  0
   42.2762   66.7080   99.4237 H   0  0  0  0  0  0
   42.2581   68.9755  100.3365 H   0  0  0  0  0  0
   43.3465   68.8130   98.9167 H   0  0  0  0  0  0
   44.0367   68.8910  100.5733 H   0  0  0  0  0  0
   44.3665   65.3271   99.6298 H   0  0  0  0  0  0
   45.2479   66.7971  100.1672 H   0  0  0  0  0  0
   44.5577   66.7191   98.5107 H   0  0  0  0  0  0
   42.1110   64.3315  102.2011 H   0  0  0  0  0  0
   44.6823   63.8697  103.8667 H   0  0  0  0  0  0
   41.9365   62.6306  104.3087 H   0  0  0  0  0  0
   43.3397   62.6690  105.4295 H   0  0  0  0  0  0
   41.8816   65.1872  104.5130 H   0  0  0  0  0  0
   40.2946   63.6112  105.6730 H   0  0  0  0  0  0
   40.6559   65.0468  106.6904 H   0  0  0  0  0  0
   41.4483   63.4738  107.0430 H   0  0  0  0  0  0
   44.1713   65.5032  105.4026 H   0  0  0  0  0  0
   43.7286   64.5863  106.8825 H   0  0  0  0  0  0
   42.9362   66.1594  106.5299 H   0  0  0  0  0  0
   44.4822   61.4957  103.3579 H   0  0  0  0  0  0
   41.9885   61.5941  102.6342 H   0  0  0  0  0  0
   45.2753   61.3447  101.0987 H   0  0  0  0  0  0
   45.0131   63.1133  100.9258 H   0  0  0  0  0  0
   46.5717   60.5858  102.8438 H   0  0  0  0  0  0
   48.8824   62.3247  103.6729 H   0  0  0  0  0  0
   48.3950   60.3309  104.9139 H   0  0  0  0  0  0
   50.0560   60.3057  104.2305 H   0  0  0  0  0  0
   48.7579   59.3225  103.4723 H   0  0  0  0  0  0
   48.9436   63.4035  101.8161 H   0  0  0  0  0  0
   50.2182   62.1296   99.2645 H   0  0  0  0  0  0
   48.8067   64.6088   99.6559 H   0  0  0  0  0  0
   49.9770   64.3118   98.3259 H   0  0  0  0  0  0
   48.6310   63.4549   97.1544 H   0  0  0  0  0  0
   48.3978   61.2534   98.1734 H   0  0  0  0  0  0
   46.7734   61.8302   97.6680 H   0  0  0  0  0  0
   47.2504   61.8927   99.3987 H   0  0  0  0  0  0
   47.2836   65.4097   98.3306 H   0  0  0  0  0  0
   46.6252   64.2037   99.4877 H   0  0  0  0  0  0
   46.1483   64.1413   97.7570 H   0  0  0  0  0  0
   51.9416   62.8739  101.2597 H   0  0  0  0  0  0
   52.4439   62.6760   98.7338 H   0  0  0  0  0  0
   51.6547   65.6557  100.7481 H   0  0  0  0  0  0
   50.4502   64.8753  101.8282 H   0  0  0  0  0  0
  1 47  1  0  0  0
  2  3  1  0  0  0
  2  6  1  0  0  0
  2 49  1  0  0  0
  2 50  1  0  0  0
  3  4  1  0  0  0
  3  5  1  0  0  0
  3 51  1  0  0  0
  4 52  1  0  0  0
  4 53  1  0  0  0
  4 54  1  0  0  0
  5 55  1  0  0  0
  5 56  1  0  0  0
  5 57  1  0  0  0
  6  7  2  0  0  0
  6  8  1  0  0  0
  8  9  1  0  0  0
  8 58  1  0  0  0
  9 12  1  0  0  0
  9 10  1  0  0  0
  9 59  1  0  0  0
 10 11  2  0  0  0
 10 15  1  0  0  0
 12 14  1  0  0  0
 12 13  1  0  0  0
 12 60  1  0  0  0
 13 61  1  0  0  0
 13 62  1  0  0  0
 13 63  1  0  0  0
 14 64  1  0  0  0
 14 65  1  0  0  0
 14 66  1  0  0  0
 15 16  1  0  0  0
 15 67  1  0  0  0
 16 19  1  0  0  0
 16 17  1  0  0  0
 16 68  1  0  0  0
 17 18  2  0  0  0
 17 22  1  0  0  0
 19 21  1  0  0  0
 19 20  1  0  0  0
 19 69  1  0  0  0
 20 70  1  0  0  0
 20 71  1  0  0  0
 20 72  1  0  0  0
 21 73  1  0  0  0
 21 74  1  0  0  0
 21 75  1  0  0  0
 22 23  1  0  0  0
 22 76  1  0  0  0
 23 24  1  0  0  0
 23 28  1  0  0  0
 23 77  1  0  0  0
 24 25  1  0  0  0
 24 78  1  0  0  0
 24 79  1  0  0  0
 25 26  1  0  0  0
 25 27  1  0  0  0
 25 80  1  0  0  0
 26 81  1  0  0  0
 26 82  1  0  0  0
 26 83  1  0  0  0
 27 84  1  0  0  0
 27 85  1  0  0  0
 27 86  1  0  0  0
 28 29  1  0  0  0
 28 30  1  0  0  0
 28 87  1  0  0  0
 29 88  1  0  0  0
 30 31  1  0  0  0
 30 89  1  0  0  0
 30 90  1  0  0  0
 31 32  2  0  0  0
 31 33  1  0  0  0
 33 34  1  0  0  0
 33 91  1  0  0  0
 34 37  1  0  0  0
 34 35  1  0  0  0
 34 92  1  0  0  0
 35 38  1  0  0  0
 35 36  2  0  0  0
 37 93  1  0  0  0
 37 94  1  0  0  0
 37 95  1  0  0  0
 38 39  1  0  0  0
 38 96  1  0  0  0
 39 40  1  0  0  0
 39 44  1  0  0  0
 39 97  1  0  0  0
 40 41  1  0  0  0
 40 98  1  0  0  0
 40 99  1  0  0  0
 41 42  1  0  0  0
 41 43  1  0  0  0
 41100  1  0  0  0
 42101  1  0  0  0
 42102  1  0  0  0
 42103  1  0  0  0
 43104  1  0  0  0
 43105  1  0  0  0
 43106  1  0  0  0
 44 45  1  0  0  0
 44 46  1  0  0  0
 44107  1  0  0  0
 45108  1  0  0  0
 46 47  1  0  0  0
 46109  1  0  0  0
 46110  1  0  0  0
 47 48  2  0  0  0
M  CHG  1   1  -1
M  END
> <s_m_source_file>
../6apr_ligand.sdf

> <i_m_source_file_index>
1

> <s_epik_input>
W09IXUMoPU8pW0NIMl1bQ0BIXShbT0hdKVtDQEhdKFtDSDJdW0NIXShbQ0gzXSlbQ0gzXSlbTkhdQyg9TylbQ0BIXShbQ0gzXSlbTkhdQyg9TylbQ0gyXVtDQEhdKFtPSF0pW0NASF0oW0NIMl1bQ0hdKFtDSDNdKVtDSDNdKVtOSF1DKD1PKVtDQEhdKFtDSF0oW0NIM10pW0NIM10pW05IXUMoPU8pW0NASF0oW0NIXShbQ0gzXSlbQ0gzXSlbTkhdQyg9TylbQ0gyXVtDSF0oW0NIM10pW0NIM10=

> <s_epik_cmdline>
J2VwaWtfYXBwJywgJy1pbWFlJywgJ2xpZ2FuZF9wcm8ubWFlJywgJy1vbWFlJywgJ2xpZ2FuZF9wcmVwLm1hZScsICctbXMnLCAnMScsICctcGgnLCAnNycsICctcGh0JywgJzAuNScsICctbnQn

> <r_lp_tautomer_probability>
1

> <r_epik_Ionization_Penalty>
  0.0021

> <r_epik_Ionization_Penalty_Charging>
  0.0021

> <r_epik_Ionization_Penalty_Neutral>
  0.0000

> <r_epik_State_Penalty>
 -0.0000

> <r_epik_Charging_Adjusted_Penalty>
0.00208702823195129

> <i_epik_Tot_Q>
-1

> <i_epik_Tot_abs_Q>
1

$$$$
