6cgt_ligand
                    3D
 Schrodinger Suite 2020-3.
133140  0  0  1  0            999 V2000
   14.4730   19.4970    5.4140 C   0  0  1  0  0  0
   13.5670   20.3150    6.4470 C   0  0  1  0  0  0
   13.8030   19.9070    7.9330 C   0  0  2  0  0  0
   13.7680   18.4120    8.0500 C   0  0  1  0  0  0
   14.8490   17.8800    7.1490 C   0  0  1  0  0  0
   15.1800   16.4330    7.3090 C   0  0  0  0  0  0
   15.7920   19.8940    5.5670 O   0  0  0  0  0  0
   13.8460   21.6980    6.3150 O   0  0  0  0  0  0
   12.7990   20.4840    8.7490 O   0  0  0  0  0  0
   13.9770   18.0040    9.4240 O   0  0  0  0  0  0
   14.4650   18.0930    5.7920 O   0  0  0  0  0  0
   14.1120   15.6310    6.9180 O   0  0  0  0  0  0
   12.8790   17.4470   10.0880 C   0  0  2  0  0  0
   12.6740   18.1060   11.4230 C   0  0  1  0  0  0
   13.6560   17.6120   12.5040 C   0  0  2  0  0  0
   13.6860   16.1160   12.5560 C   0  0  1  0  0  0
   14.0470   15.5790   11.1850 C   0  0  1  0  0  0
   14.0860   14.0610   11.1560 C   0  0  0  0  0  0
   12.8650   19.4720   11.2220 O   0  0  0  0  0  0
   13.2360   18.0970   13.7610 O   0  0  0  0  0  0
   14.6650   15.6490   13.5320 N   0  3  0  0  0  0
   13.0540   15.9880   10.2000 O   0  0  0  0  0  0
   14.3140   15.3700   14.9640 C   0  0  2  0  0  0
   15.2220   14.2660   15.4960 C   0  0  2  0  0  0
   16.5920   14.5650   15.2320 O   0  0  0  0  0  0
   14.8630   12.9310   14.8740 C   0  0  1  0  0  0
   15.8930   12.0030   15.2180 O   0  0  0  0  0  0
   13.4850   12.4050   15.3990 C   0  0  2  0  0  0
   13.0640   11.2600   14.6050 O   0  0  0  0  0  0
   12.3570   13.5040   15.3480 C   0  0  1  0  0  0
   12.0810   14.2170   14.1500 O   0  0  0  0  0  0
   11.2870   13.3320   16.4070 C   0  0  0  0  0  0
   12.8390   14.9360   15.1510 C   0  0  2  0  0  0
   11.8060   12.7650   17.5900 O   0  0  0  0  0  0
   12.5240   10.1460   15.2520 C   0  0  2  0  0  0
   13.3290    8.9560   14.9150 C   0  0  1  0  0  0
   13.3130    8.7180   13.4120 C   0  0  2  0  0  0
   11.8840    8.5140   12.9370 C   0  0  1  0  0  0
   11.0430    9.7530   13.3900 C   0  0  1  0  0  0
    9.5520    9.6590   13.0730 C   0  0  0  0  0  0
   14.6530    9.1590   15.3540 O   0  0  0  0  0  0
   14.0820    7.5910   13.1010 O   0  0  0  0  0  0
   11.8760    8.4180   11.4760 O   0  0  0  0  0  0
   11.1560    9.9620   14.8210 O   0  0  0  0  0  0
    8.9290    8.5350   13.7090 O   0  0  0  0  0  0
   12.1100    7.1900   10.8730 C   0  0  2  0  0  0
   12.2540    7.3900    9.3340 C   0  0  1  0  0  0
   10.9240    7.8860    8.7410 C   0  0  2  0  0  0
    9.7620    6.9920    9.2100 C   0  0  1  0  0  0
    9.7600    6.8470   10.7170 C   0  0  1  0  0  0
    8.6810    5.9330   11.2270 C   0  0  0  0  0  0
   13.2870    8.3360    9.0630 O   0  0  0  0  0  0
   11.0030    7.8520    7.3110 O   0  0  0  0  0  0
    8.5230    7.6070    8.7960 N   0  3  0  0  0  0
   11.0340    6.3060   11.1580 O   0  0  0  0  0  0
    7.4520    6.8440    8.1480 C   0  0  2  0  0  0
    7.5420    6.9980    6.6160 C   0  0  2  0  0  0
    8.7630    6.4390    6.0920 O   0  0  0  0  0  0
    7.4480    8.5120    6.2890 C   0  0  1  0  0  0
    7.8320    8.7350    4.9200 O   0  0  0  0  0  0
    5.9600    9.0500    6.5590 C   0  0  2  0  0  0
    5.9560   10.4780    6.5650 O   0  0  0  0  0  0
    5.3230    8.5590    7.9310 C   0  0  1  0  0  0
    5.9700    8.7760    9.2320 O   0  0  0  0  0  0
    3.8030    8.2800    7.7990 C   0  0  0  0  0  0
    6.1010    7.4320    8.6390 C   0  0  2  0  0  0
    3.5230    7.4460    6.6760 O   0  0  0  0  0  0
   14.1991   19.6248    4.3563 H   0  0  0  0  0  0
   12.5002   20.1971    6.2060 H   0  0  0  0  0  0
   14.7504   20.2860    8.3439 H   0  0  0  0  0  0
   12.7832   17.9995    7.7854 H   0  0  0  0  0  0
   15.7621   18.4452    7.3873 H   0  0  0  0  0  0
   16.0530   16.1857    6.6872 H   0  0  0  0  0  0
   15.4103   16.2240    8.3641 H   0  0  0  0  0  0
   16.0836   20.9310    5.3442 H   0  0  0  0  0  0
   13.7402   22.1895    5.3366 H   0  0  0  0  0  0
   12.6806   21.5770    8.7853 H   0  0  0  0  0  0
   14.1967   14.5358    6.9755 H   0  0  0  0  0  0
   12.0064   17.6455    9.4483 H   0  0  0  0  0  0
   11.6405   17.9463   11.7642 H   0  0  0  0  0  0
   14.6731   17.9953   12.3350 H   0  0  0  0  0  0
   12.7051   15.7476   12.8907 H   0  0  0  0  0  0
   15.0258   16.0048   10.9193 H   0  0  0  0  0  0
   14.8248   13.6992   11.8863 H   0  0  0  0  0  0
   14.3688   13.7207   10.1489 H   0  0  0  0  0  0
   13.0926   13.6638   11.4118 H   0  0  0  0  0  0
   12.2528   20.0101   10.4833 H   0  0  0  0  0  0
   13.1474   19.1802   13.9310 H   0  0  0  0  0  0
   15.0856   14.6888   13.1988 H   0  0  0  0  0  0
   15.4723   16.3903   13.6251 H   0  0  0  0  0  0
   14.4764   16.3167   15.5001 H   0  0  0  0  0  0
   15.1424   14.2134   16.5919 H   0  0  0  0  0  0
   17.0333   15.4998   15.6081 H   0  0  0  0  0  0
   14.8549   13.0185   13.7775 H   0  0  0  0  0  0
   16.9349   12.2060   14.9296 H   0  0  0  0  0  0
   13.6137   12.0438   16.4300 H   0  0  0  0  0  0
   10.8556   14.3130   16.6550 H   0  0  0  0  0  0
   10.4962   12.6696   16.0251 H   0  0  0  0  0  0
   12.7095   15.8821   15.6970 H   0  0  0  0  0  0
   11.1433   12.5808   18.4484 H   0  0  0  0  0  0
   12.5416   10.3448   16.3337 H   0  0  0  0  0  0
   12.9486    8.0825   15.4648 H   0  0  0  0  0  0
   13.7991    9.5431   12.8708 H   0  0  0  0  0  0
   11.4751    7.5644   13.3127 H   0  0  0  0  0  0
   11.4619   10.6298   12.8744 H   0  0  0  0  0  0
    9.0449   10.5709   13.4212 H   0  0  0  0  0  0
    9.4139    9.5547   11.9867 H   0  0  0  0  0  0
   14.8568    9.3470   16.4185 H   0  0  0  0  0  0
   15.1478    7.5606   13.3716 H   0  0  0  0  0  0
    7.8546    8.3476   13.5654 H   0  0  0  0  0  0
   12.9995    6.7750   11.3696 H   0  0  0  0  0  0
   12.5816    6.4674    8.8326 H   0  0  0  0  0  0
   10.7418    8.9363    9.0124 H   0  0  0  0  0  0
    9.8199    5.9931    8.7530 H   0  0  0  0  0  0
    9.6092    7.8500   11.1427 H   0  0  0  0  0  0
    7.6985    6.3133   10.9107 H   0  0  0  0  0  0
    8.7227    5.8938   12.3255 H   0  0  0  0  0  0
    8.8323    4.9231   10.8180 H   0  0  0  0  0  0
   14.3121    8.1466    9.4140 H   0  0  0  0  0  0
   11.7772    8.4334    6.7890 H   0  0  0  0  0  0
    8.0182    8.0405    9.6719 H   0  0  0  0  0  0
    8.7342    8.4008    8.0644 H   0  0  0  0  0  0
    7.5854    5.7875    8.4239 H   0  0  0  0  0  0
    6.7695    6.4013    6.1087 H   0  0  0  0  0  0
    8.9860    5.3717    6.2373 H   0  0  0  0  0  0
    8.1999    9.0726    6.8637 H   0  0  0  0  0  0
    8.8269    8.4225    4.5699 H   0  0  0  0  0  0
    5.3177    8.7474    5.7188 H   0  0  0  0  0  0
    6.3558   11.0327    5.7034 H   0  0  0  0  0  0
    3.4427    7.7751    8.7074 H   0  0  0  0  0  0
    3.2654    9.2310    7.6704 H   0  0  0  0  0  0
    5.8611    6.4101    8.9679 H   0  0  0  0  0  0
    2.4857    7.1584    6.4495 H   0  0  0  0  0  0
  1  2  1  0  0  0
  1  7  1  0  0  0
  1 11  1  0  0  0
  1 68  1  0  0  0
  2  3  1  0  0  0
  2  8  1  0  0  0
  2 69  1  0  0  0
  3  4  1  0  0  0
  3  9  1  0  0  0
  3 70  1  0  0  0
  4  5  1  0  0  0
  4 10  1  0  0  0
  4 71  1  0  0  0
  5  6  1  0  0  0
  5 11  1  0  0  0
  5 72  1  0  0  0
  6 12  1  0  0  0
  6 73  1  0  0  0
  6 74  1  0  0  0
  7 75  1  0  0  0
  8 76  1  0  0  0
  9 77  1  0  0  0
 10 13  1  0  0  0
 12 78  1  0  0  0
 13 14  1  0  0  0
 13 22  1  0  0  0
 13 79  1  0  0  0
 14 15  1  0  0  0
 14 19  1  0  0  0
 14 80  1  0  0  0
 15 16  1  0  0  0
 15 20  1  0  0  0
 15 81  1  0  0  0
 16 17  1  0  0  0
 16 21  1  0  0  0
 16 82  1  0  0  0
 17 18  1  0  0  0
 17 22  1  0  0  0
 17 83  1  0  0  0
 18 84  1  0  0  0
 18 85  1  0  0  0
 18 86  1  0  0  0
 19 87  1  0  0  0
 20 88  1  0  0  0
 21 23  1  0  0  0
 21 89  1  0  0  0
 21 90  1  0  0  0
 23 24  1  0  0  0
 23 33  1  0  0  0
 23 91  1  0  0  0
 24 25  1  0  0  0
 24 26  1  0  0  0
 24 92  1  0  0  0
 25 93  1  0  0  0
 26 27  1  0  0  0
 26 28  1  0  0  0
 26 94  1  0  0  0
 27 95  1  0  0  0
 28 29  1  0  0  0
 28 30  1  0  0  0
 28 96  1  0  0  0
 29 35  1  0  0  0
 30 31  1  0  0  0
 30 32  1  0  0  0
 30 33  1  0  0  0
 31 33  1  0  0  0
 32 34  1  0  0  0
 32 97  1  0  0  0
 32 98  1  0  0  0
 33 99  1  0  0  0
 34100  1  0  0  0
 35 36  1  0  0  0
 35 44  1  0  0  0
 35101  1  0  0  0
 36 37  1  0  0  0
 36 41  1  0  0  0
 36102  1  0  0  0
 37 38  1  0  0  0
 37 42  1  0  0  0
 37103  1  0  0  0
 38 39  1  0  0  0
 38 43  1  0  0  0
 38104  1  0  0  0
 39 40  1  0  0  0
 39 44  1  0  0  0
 39105  1  0  0  0
 40 45  1  0  0  0
 40106  1  0  0  0
 40107  1  0  0  0
 41108  1  0  0  0
 42109  1  0  0  0
 43 46  1  0  0  0
 45110  1  0  0  0
 46 47  1  0  0  0
 46 55  1  0  0  0
 46111  1  0  0  0
 47 48  1  0  0  0
 47 52  1  0  0  0
 47112  1  0  0  0
 48 49  1  0  0  0
 48 53  1  0  0  0
 48113  1  0  0  0
 49 50  1  0  0  0
 49 54  1  0  0  0
 49114  1  0  0  0
 50 51  1  0  0  0
 50 55  1  0  0  0
 50115  1  0  0  0
 51116  1  0  0  0
 51117  1  0  0  0
 51118  1  0  0  0
 52119  1  0  0  0
 53120  1  0  0  0
 54 56  1  0  0  0
 54121  1  0  0  0
 54122  1  0  0  0
 56 57  1  0  0  0
 56 66  1  0  0  0
 56123  1  0  0  0
 57 58  1  0  0  0
 57 59  1  0  0  0
 57124  1  0  0  0
 58125  1  0  0  0
 59 60  1  0  0  0
 59 61  1  0  0  0
 59126  1  0  0  0
 60127  1  0  0  0
 61 62  1  0  0  0
 61 63  1  0  0  0
 61128  1  0  0  0
 62129  1  0  0  0
 63 64  1  0  0  0
 63 65  1  0  0  0
 63 66  1  0  0  0
 64 66  1  0  0  0
 65 67  1  0  0  0
 65130  1  0  0  0
 65131  1  0  0  0
 66132  1  0  0  0
 67133  1  0  0  0
M  CHG  2  21   1  54   1
M  END
> <s_m_source_file>
../6cgt_ligand.sdf

> <i_m_source_file_index>
1

> <s_epik_input>
W09IXVtDQEBIXTFbQ0BIXShbT0hdKVtDQEBIXShbT0hdKVtDQEBIXShbQ0BIXShPMSlbQ0gyXVtPSF0pT1tDQEBIXTJbQ0BIXShbT0hdKVtDQEBIXShbT0hdKVtDQEBIXShbQ0BIXShPMilbQ0gzXSlbTkgyK11bQ0BASF0oW0NAQEhdKE8zKVtDQEBdMzRbQ0gyXVtPSF0pW0NASF0oW09IXSlbQ0BASF0oW09IXSlbQ0BASF00T1tDQEBIXTVbQ0BIXShbT0hdKVtDQEBIXShbT0hdKVtDQEBIXShbQ0BIXShPNSlbQ0gyXVtPSF0pT1tDQEBIXTZbQ0BIXShbT0hdKVtDQEBIXShbT0hdKVtDQEBIXShbQ0BIXShPNilbQ0gzXSlbTkgyK11bQ0BIXShbQ0BIXShbT0hdKVtDQEBIXShbT0hdKVtDQEBIXTdbT0hdKVtDQEBIXShPOClbQ0BdNzhbQ0gyXVtPSF0=

> <s_epik_cmdline>
J2VwaWtfYXBwJywgJy1pbWFlJywgJ2xpZ2FuZF9wcm8ubWFlJywgJy1vbWFlJywgJ2xpZ2FuZF9wcmVwLm1hZScsICctbXMnLCAnMScsICctcGgnLCAnNycsICctcGh0JywgJzAuNScsICctbnQn

> <r_lp_tautomer_probability>
1

> <r_epik_Ionization_Penalty>
  0.0645

> <r_epik_Ionization_Penalty_Charging>
  0.0644

> <r_epik_Ionization_Penalty_Neutral>
  0.0001

> <r_epik_State_Penalty>
 -0.0000

> <r_epik_Charging_Adjusted_Penalty>
0.0644051503365633

> <i_epik_Tot_Q>
2

> <i_epik_Tot_abs_Q>
2

> <s_epik_Chemistry_Notes>
This compound contains an acetal/aminal-like group ( X-CH(R)-Y where X, Y are N, S, or O) that may be acid/base labile, releasing an aldehyde.

$$$$
