6cha_ligand
                    3D
 Schrodinger Suite 2020-3.
 22 22  0  0  1  0            999 V2000
   28.3530   20.6960   25.3240 B   0  0  0  0  0  0
   29.5780   20.1100   25.5650 O   0  0  0  0  0  0
   28.4030   21.7210   26.2570 O   0  0  0  0  0  0
   27.0290   19.6870   25.4750 C   0  0  0  0  0  0
   26.3870   19.4190   24.1190 C   0  0  0  0  0  0
   25.4170   18.1830   24.2050 C   0  0  0  0  0  0
   25.0600   17.6100   25.4270 C   0  0  0  0  0  0
   24.8600   17.7190   22.9690 C   0  0  0  0  0  0
   24.1820   16.5390   25.4530 C   0  0  0  0  0  0
   23.9200   16.6590   23.0230 C   0  0  0  0  0  0
   23.6190   16.0660   24.2720 C   0  0  0  0  0  0
   30.4984   20.7072   25.4861 H   0  0  0  0  0  0
   29.2361   22.4391   26.2411 H   0  0  0  0  0  0
   27.3467   18.7279   25.9099 H   0  0  0  0  0  0
   26.2822   20.1577   26.1313 H   0  0  0  0  0  0
   25.8132   20.3030   23.8039 H   0  0  0  0  0  0
   27.1713   19.2075   23.3773 H   0  0  0  0  0  0
   25.4705   18.0038   26.3568 H   0  0  0  0  0  0
   25.1496   18.1664   22.0182 H   0  0  0  0  0  0
   23.9313   16.0651   26.4021 H   0  0  0  0  0  0
   23.4350   16.3051   22.1133 H   0  0  0  0  0  0
   22.9316   15.2209   24.3096 H   0  0  0  0  0  0
  1  2  1  0  0  0
  1  3  1  0  0  0
  1  4  1  0  0  0
  2 12  1  0  0  0
  3 13  1  0  0  0
  4  5  1  0  0  0
  4 14  1  0  0  0
  4 15  1  0  0  0
  5  6  1  0  0  0
  5 16  1  0  0  0
  5 17  1  0  0  0
  6  7  2  0  0  0
  6  8  1  0  0  0
  7  9  1  0  0  0
  7 18  1  0  0  0
  8 10  2  0  0  0
  8 19  1  0  0  0
  9 11  2  0  0  0
  9 20  1  0  0  0
 10 11  1  0  0  0
 10 21  1  0  0  0
 11 22  1  0  0  0
M  END
> <s_m_source_file>
../6cha_ligand.sdf

> <i_m_source_file_index>
1

> <s_epik_input>
W09IXUIoW09IXSlbQ0gyXVtDSDJdYzFbY0hdW2NIXVtjSF1bY0hdW2NIXTE=

> <s_epik_cmdline>
J2VwaWtfYXBwJywgJy1pbWFlJywgJ2xpZ2FuZF9wcm8ubWFlJywgJy1vbWFlJywgJ2xpZ2FuZF9wcmVwLm1hZScsICctbXMnLCAnMScsICctcGgnLCAnNycsICctcGh0JywgJzAuNScsICctbnQn

> <r_lp_tautomer_probability>
1

> <r_epik_Ionization_Penalty>
  0.0000

> <r_epik_Ionization_Penalty_Charging>
  0.0000

> <r_epik_Ionization_Penalty_Neutral>
  0.0000

> <r_epik_State_Penalty>
 -0.0000

> <r_epik_Charging_Adjusted_Penalty>
0

> <i_epik_Tot_Q>
0

> <i_epik_Tot_abs_Q>
0

> <s_epik_Chemistry_Notes>
This compound contains a Lewis acid (boronic acid) which adds nucleophiles to form tetrahedral complexes, lowering the experimental pKa

$$$$
