6cpa_ligand
                    3D
 Schrodinger Suite 2020-3.
 58 59  0  0  1  0            999 V2000
   43.3530   21.9810   33.0060 O   0  5  0  0  0  0
   44.9330   20.7080   33.7910 O   0  0  0  0  0  0
   44.3810   21.7620   33.7870 C   0  0  0  0  0  0
   45.8010   23.7200   33.8630 C   0  0  0  0  0  0
   45.4530   24.3240   32.6120 C   0  0  0  0  0  0
   44.9300   25.5720   32.5610 C   0  0  0  0  0  0
   44.5940   26.1140   31.3700 C   0  0  0  0  0  0
   44.8270   25.4430   30.2220 C   0  0  0  0  0  0
   45.3800   24.2100   30.2690 C   0  0  0  0  0  0
   45.6730   23.6490   31.4630 C   0  0  0  0  0  0
   44.7860   22.8600   34.6250 C   0  0  2  0  0  0
   45.3620   22.1520   35.7500 O   0  0  0  0  0  0
   44.3570   21.6130   37.0050 P   0  0  2  0  0  0
   43.1950   20.7680   36.4200 O   0  5  0  0  0  0
   43.9570   22.8250   37.8750 O   0  0  0  0  0  0
   45.3160   20.6070   38.0430 C   0  0  2  0  0  0
   46.5850   21.2440   38.6590 C   0  0  0  0  0  0
   45.7960   19.4980   37.2930 N   0  0  0  0  0  0
   45.3570   18.2410   37.4320 C   0  0  0  0  0  0
   44.3410   18.0080   38.0120 O   0  0  0  0  0  0
   46.1970   17.2370   36.8460 C   0  0  2  0  0  0
   45.5300   16.7620   35.5390 C   0  0  0  0  0  0
   46.5150   16.1430   37.6990 N   0  0  0  0  0  0
   47.2360   16.1680   38.8220 C   0  0  0  0  0  0
   47.3660   15.1310   39.4080 O   0  0  0  0  0  0
   47.7820   17.3100   39.2160 O   0  0  0  0  0  0
   48.9620   17.2330   39.9760 C   0  0  0  0  0  0
   49.7750   18.4090   40.1040 C   0  0  0  0  0  0
   50.2630   18.9960   38.9920 C   0  0  0  0  0  0
   51.0300   20.1000   39.0890 C   0  0  0  0  0  0
   51.3450   20.5950   40.3010 C   0  0  0  0  0  0
   50.8600   20.0080   41.4110 C   0  0  0  0  0  0
   50.0880   18.9060   41.3200 C   0  0  0  0  0  0
   46.6566   23.0440   33.7183 H   0  0  0  0  0  0
   46.0711   24.5037   34.5860 H   0  0  0  0  0  0
   44.7803   26.1387   33.4800 H   0  0  0  0  0  0
   44.1314   27.1004   31.3357 H   0  0  0  0  0  0
   44.5708   25.8926   29.2627 H   0  0  0  0  0  0
   45.5890   23.6697   29.3457 H   0  0  0  0  0  0
   46.0906   22.6428   31.4991 H   0  0  0  0  0  0
   43.9653   23.5146   34.9537 H   0  0  0  0  0  0
   44.7408   20.2182   38.8963 H   0  0  0  0  0  0
   46.3003   22.1189   39.2619 H   0  0  0  0  0  0
   47.2649   21.5591   37.8537 H   0  0  0  0  0  0
   47.0916   20.5067   39.2991 H   0  0  0  0  0  0
   46.5820   19.6439   36.5374 H   0  0  0  0  0  0
   47.1856   17.7068   36.7363 H   0  0  0  0  0  0
   45.2996   17.6327   34.9075 H   0  0  0  0  0  0
   44.5999   16.2247   35.7762 H   0  0  0  0  0  0
   46.2148   16.0898   35.0012 H   0  0  0  0  0  0
   46.1522   15.1332   37.4568 H   0  0  0  0  0  0
   48.7145   16.9502   41.0098 H   0  0  0  0  0  0
   49.6308   16.4768   39.5392 H   0  0  0  0  0  0
   50.0364   18.5762   38.0119 H   0  0  0  0  0  0
   51.3950   20.5917   38.1872 H   0  0  0  0  0  0
   51.9912   21.4690   40.3831 H   0  0  0  0  0  0
   51.0929   20.4263   42.3902 H   0  0  0  0  0  0
   49.7188   18.4193   42.2227 H   0  0  0  0  0  0
  1  3  1  0  0  0
  2  3  2  0  0  0
  3 11  1  0  0  0
  4  5  1  0  0  0
  4 11  1  0  0  0
  4 34  1  0  0  0
  4 35  1  0  0  0
  5  6  2  0  0  0
  5 10  1  0  0  0
  6  7  1  0  0  0
  6 36  1  0  0  0
  7  8  2  0  0  0
  7 37  1  0  0  0
  8  9  1  0  0  0
  8 38  1  0  0  0
  9 10  2  0  0  0
  9 39  1  0  0  0
 10 40  1  0  0  0
 11 12  1  0  0  0
 11 41  1  0  0  0
 12 13  1  0  0  0
 13 14  1  0  0  0
 13 15  2  0  0  0
 13 16  1  0  0  0
 16 17  1  0  0  0
 16 18  1  0  0  0
 16 42  1  0  0  0
 17 43  1  0  0  0
 17 44  1  0  0  0
 17 45  1  0  0  0
 18 19  1  0  0  0
 18 46  1  0  0  0
 19 20  2  0  0  0
 19 21  1  0  0  0
 21 22  1  0  0  0
 21 23  1  0  0  0
 21 47  1  0  0  0
 22 48  1  0  0  0
 22 49  1  0  0  0
 22 50  1  0  0  0
 23 24  1  0  0  0
 23 51  1  0  0  0
 24 25  2  0  0  0
 24 26  1  0  0  0
 26 27  1  0  0  0
 27 28  1  0  0  0
 27 52  1  0  0  0
 27 53  1  0  0  0
 28 29  2  0  0  0
 28 33  1  0  0  0
 29 30  1  0  0  0
 29 54  1  0  0  0
 30 31  2  0  0  0
 30 55  1  0  0  0
 31 32  1  0  0  0
 31 56  1  0  0  0
 32 33  2  0  0  0
 32 57  1  0  0  0
 33 58  1  0  0  0
M  CHG  2   1  -1  14  -1
M  END
> <s_m_source_file>
../6cpa_ligand.sdf

> <i_m_source_file_index>
1

> <s_epik_input>
W2NIXTFbY0hdW2NIXVtjSF1bY0hdYzFbQ0gyXVtDQEBIXShDKD1PKVtPSF0pT1tQQEBdKD1PKShbT0hdKVtDQEhdKFtDSDNdKVtOSF1DKD1PKVtDQEhdKFtDSDNdKVtOSF1DKD1PKU9bQ0gyXWMyW2NIXVtjSF1bY0hdW2NIXVtjSF0y

> <s_epik_cmdline>
J2VwaWtfYXBwJywgJy1pbWFlJywgJ2xpZ2FuZF9wcm8ubWFlJywgJy1vbWFlJywgJ2xpZ2FuZF9wcmVwLm1hZScsICctbXMnLCAnMScsICctcGgnLCAnNycsICctcGh0JywgJzAuNScsICctbnQn

> <r_lp_tautomer_probability>
1

> <r_epik_Ionization_Penalty>
  0.0002

> <r_epik_Ionization_Penalty_Charging>
  0.0002

> <r_epik_Ionization_Penalty_Neutral>
  0.0000

> <r_epik_State_Penalty>
 -0.0000

> <r_epik_Charging_Adjusted_Penalty>
0.000213538099214168

> <i_epik_Tot_Q>
-2

> <i_epik_Tot_abs_Q>
2

> <s_epik_Chemistry_Notes>
This compound has an ester and may undergo hydrolysis at high or low pH.

$$$$
