6gpb_ligand
                    3D
 Schrodinger Suite 2020-3.
 30 30  0  0  1  0            999 V2000
   33.4830   23.0080   27.8320 C   0  0  1  0  0  0
   33.6870   23.1710   26.3310 C   0  0  1  0  0  0
   32.4770   22.6150   25.5910 C   0  0  2  0  0  0
   32.3010   21.1400   25.9210 C   0  0  1  0  0  0
   32.1120   20.9690   27.4240 C   0  0  1  0  0  0
   32.0400   19.4930   27.7900 C   0  0  0  0  0  0
   34.7000   23.4750   28.6160 C   0  0  0  0  0  0
   32.3220   23.8330   28.1980 O   0  0  0  0  0  0
   33.8550   24.5900   26.0030 O   0  0  0  0  0  0
   32.6690   22.7800   24.1440 O   0  0  0  0  0  0
   31.1290   20.6140   25.2110 O   0  0  0  0  0  0
   33.2430   21.5870   28.1340 O   0  0  0  0  0  0
   33.2810   18.8050   27.4050 O   0  0  0  0  0  0
   31.5120   25.0300   27.5030 P   0  0  0  0  0  0
   30.3860   24.4830   26.5240 O   0  5  0  0  0  0
   30.8240   25.8660   28.6770 O   0  5  0  0  0  0
   32.5150   25.9480   26.6810 O   0  0  0  0  0  0
   34.6048   22.6554   26.0120 H   0  0  0  0  0  0
   31.5706   23.1724   25.8697 H   0  0  0  0  0  0
   33.1751   20.5661   25.5795 H   0  0  0  0  0  0
   31.1889   21.4771   27.7398 H   0  0  0  0  0  0
   31.8975   19.3911   28.8760 H   0  0  0  0  0  0
   31.1947   19.0255   27.2638 H   0  0  0  0  0  0
   34.8906   24.5364   28.3992 H   0  0  0  0  0  0
   35.5761   22.8778   28.3231 H   0  0  0  0  0  0
   34.5133   23.3484   29.6926 H   0  0  0  0  0  0
   34.6824   25.1629   26.4471 H   0  0  0  0  0  0
   32.8133   23.7844   23.7193 H   0  0  0  0  0  0
   31.0882   20.6529   24.1124 H   0  0  0  0  0  0
   33.3959   17.7284   27.5990 H   0  0  0  0  0  0
  1  2  1  0  0  0
  1  7  1  0  0  0
  1  8  1  0  0  0
  1 12  1  0  0  0
  2  3  1  0  0  0
  2  9  1  0  0  0
  2 18  1  0  0  0
  3  4  1  0  0  0
  3 10  1  0  0  0
  3 19  1  0  0  0
  4  5  1  0  0  0
  4 11  1  0  0  0
  4 20  1  0  0  0
  5  6  1  0  0  0
  5 12  1  0  0  0
  5 21  1  0  0  0
  6 13  1  0  0  0
  6 22  1  0  0  0
  6 23  1  0  0  0
  7 24  1  0  0  0
  7 25  1  0  0  0
  7 26  1  0  0  0
  8 14  1  0  0  0
  9 27  1  0  0  0
 10 28  1  0  0  0
 11 29  1  0  0  0
 13 30  1  0  0  0
 14 15  1  0  0  0
 14 16  1  0  0  0
 14 17  2  0  0  0
M  CHG  2  15  -1  16  -1
M  END
> <s_m_source_file>
../6gpb_ligand.sdf

> <i_m_source_file_index>
1

> <s_epik_input>
W09IXVAoPU8pKFtPSF0pT1tDQF0xKFtDSDNdKVtDQEhdKFtPSF0pW0NAQEhdKFtPSF0pW0NASF0oW09IXSlbQ0BIXShPMSlbQ0gyXVtPSF0=

> <s_epik_cmdline>
J2VwaWtfYXBwJywgJy1pbWFlJywgJ2xpZ2FuZF9wcm8ubWFlJywgJy1vbWFlJywgJ2xpZ2FuZF9wcmVwLm1hZScsICctbXMnLCAnMScsICctcGgnLCAnNycsICctcGh0JywgJzAuNScsICctbnQn

> <r_epik_Ionization_Penalty>
  0.0776

> <r_epik_Ionization_Penalty_Charging>
  0.0776

> <r_epik_Ionization_Penalty_Neutral>
  0.0000

> <r_epik_State_Penalty>
  0.0686

> <r_epik_Charging_Adjusted_Penalty>
0.146161834049153

> <i_epik_Tot_Q>
-2

> <i_epik_Tot_abs_Q>
2

$$$$
