6lpr_ligand
                    3D
 Schrodinger Suite 2020-3.
 58 58  0  0  1  0            999 V2000
   13.5780   42.0430   18.4200 N   0  3  0  0  0  0
   14.1690   40.6990   18.3580 C   0  0  2  0  0  0
   13.2970   39.4770   18.6320 C   0  0  0  0  0  0
   12.5400   39.4140   19.6290 O   0  0  0  0  0  0
   15.3240   40.4650   19.3150 C   0  0  0  0  0  0
   13.4670   38.5180   17.7330 N   0  0  0  0  0  0
   12.6800   37.2760   17.9110 C   0  0  2  0  0  0
   13.6420   36.1620   17.5290 C   0  0  0  0  0  0
   14.5400   36.4300   16.7330 O   0  0  0  0  0  0
   11.4900   37.3110   16.9680 C   0  0  0  0  0  0
   13.3560   35.0200   18.1060 N   0  0  0  0  0  0
   14.1460   33.8120   17.7590 C   0  0  2  0  0  0
   13.8460   33.4360   16.2940 C   0  0  0  0  0  0
   12.6630   33.6360   15.8880 O   0  0  0  0  0  0
   13.5210   32.7550   18.6780 C   0  0  0  0  0  0
   12.8180   33.5360   19.7640 C   0  0  0  0  0  0
   12.2210   34.7250   19.0040 C   0  0  0  0  0  0
   14.8030   32.9010   15.5620 N   0  0  0  0  0  0
   14.5770   32.4300   14.1770 C   0  0  1  0  0  0
   15.4350   33.2780   13.2290 C   0  0  0  0  0  0
   15.0690   34.7400   13.1740 C   0  0  0  0  0  0
   16.1110   35.4320   12.2800 C   0  0  0  0  0  0
   15.9840   36.9560   12.2520 C   0  0  0  0  0  0
   14.8880   30.8970   14.0750 B   0  0  0  0  0  0
   14.9350   30.3530   12.7090 O   0  0  0  0  0  0
   14.0040   30.0840   15.0000 O   0  0  0  0  0  0
   12.7542   42.1151   17.6947 H   0  0  0  0  0  0
   14.3459   42.7927   18.1785 H   0  0  0  0  0  0
   13.1916   42.2272   19.4333 H   0  0  0  0  0  0
   14.4230   40.7914   17.2917 H   0  0  0  0  0  0
   16.0481   41.2881   19.2240 H   0  0  0  0  0  0
   15.8176   39.5134   19.0682 H   0  0  0  0  0  0
   14.9432   40.4239   20.3462 H   0  0  0  0  0  0
   14.1568   38.6148   16.8816 H   0  0  0  0  0  0
   12.2985   37.1648   18.9367 H   0  0  0  0  0  0
   10.8106   38.1236   17.2650 H   0  0  0  0  0  0
   10.9559   36.3506   17.0158 H   0  0  0  0  0  0
   11.8416   37.4842   15.9402 H   0  0  0  0  0  0
   15.2295   33.9542   17.8847 H   0  0  0  0  0  0
   12.8143   32.1398   18.1017 H   0  0  0  0  0  0
   14.3134   32.1135   19.0910 H   0  0  0  0  0  0
   12.0484   32.9037   20.2307 H   0  0  0  0  0  0
   13.5494   33.8455   20.5251 H   0  0  0  0  0  0
   12.0102   35.6048   19.6297 H   0  0  0  0  0  0
   11.3323   34.4807   18.4036 H   0  0  0  0  0  0
   15.8001   32.8108   16.0178 H   0  0  0  0  0  0
   13.5191   32.5923   13.9230 H   0  0  0  0  0  0
   16.4877   33.2285   13.5441 H   0  0  0  0  0  0
   15.3405   32.8908   12.2037 H   0  0  0  0  0  0
   14.0598   34.8496   12.7504 H   0  0  0  0  0  0
   15.0879   35.1612   14.1900 H   0  0  0  0  0  0
   17.1216   35.1948   12.6438 H   0  0  0  0  0  0
   16.0008   35.0757   11.2452 H   0  0  0  0  0  0
   16.7594   37.3765   11.5948 H   0  0  0  0  0  0
   16.1111   37.3533   13.2699 H   0  0  0  0  0  0
   14.9902   37.2342   11.8712 H   0  0  0  0  0  0
   15.5422   30.8515   11.9391 H   0  0  0  0  0  0
   13.8834   30.3854   16.0510 H   0  0  0  0  0  0
  1  2  1  0  0  0
  1 27  1  0  0  0
  1 28  1  0  0  0
  1 29  1  0  0  0
  2  3  1  0  0  0
  2  5  1  0  0  0
  2 30  1  0  0  0
  3  4  2  0  0  0
  3  6  1  0  0  0
  5 31  1  0  0  0
  5 32  1  0  0  0
  5 33  1  0  0  0
  6  7  1  0  0  0
  6 34  1  0  0  0
  7  8  1  0  0  0
  7 10  1  0  0  0
  7 35  1  0  0  0
  8  9  2  0  0  0
  8 11  1  0  0  0
 10 36  1  0  0  0
 10 37  1  0  0  0
 10 38  1  0  0  0
 11 12  1  0  0  0
 11 17  1  0  0  0
 12 13  1  0  0  0
 12 15  1  0  0  0
 12 39  1  0  0  0
 13 14  2  0  0  0
 13 18  1  0  0  0
 15 16  1  0  0  0
 15 40  1  0  0  0
 15 41  1  0  0  0
 16 17  1  0  0  0
 16 42  1  0  0  0
 16 43  1  0  0  0
 17 44  1  0  0  0
 17 45  1  0  0  0
 18 19  1  0  0  0
 18 46  1  0  0  0
 19 20  1  0  0  0
 19 24  1  0  0  0
 19 47  1  0  0  0
 20 21  1  0  0  0
 20 48  1  0  0  0
 20 49  1  0  0  0
 21 22  1  0  0  0
 21 50  1  0  0  0
 21 51  1  0  0  0
 22 23  1  0  0  0
 22 52  1  0  0  0
 22 53  1  0  0  0
 23 54  1  0  0  0
 23 55  1  0  0  0
 23 56  1  0  0  0
 24 25  1  0  0  0
 24 26  1  0  0  0
 25 57  1  0  0  0
 26 58  1  0  0  0
M  CHG  1   1   1
M  END
> <s_m_source_file>
../6lpr_ligand.sdf

> <i_m_source_file_index>
1

> <s_epik_input>
W05IMytdW0NAQEhdKFtDSDNdKUMoPU8pW05IXVtDQEBIXShbQ0gzXSlDKD1PKU4xW0NAQEhdKFtDSDJdW0NIMl1bQ0gyXTEpQyg9TylbTkhdW0NASF0oQihbT0hdKVtPSF0pW0NIMl1bQ0gyXVtDSDJdW0NIM10=

> <s_epik_cmdline>
J2VwaWtfYXBwJywgJy1pbWFlJywgJ2xpZ2FuZF9wcm8ubWFlJywgJy1vbWFlJywgJ2xpZ2FuZF9wcmVwLm1hZScsICctbXMnLCAnMScsICctcGgnLCAnNycsICctcGh0JywgJzAuNScsICctbnQn

> <r_epik_Ionization_Penalty>
  0.1233

> <r_epik_Ionization_Penalty_Charging>
  0.1233

> <r_epik_Ionization_Penalty_Neutral>
  0.0000

> <r_epik_State_Penalty>
  0.1128

> <r_epik_Charging_Adjusted_Penalty>
0.236084207461101

> <i_epik_Tot_Q>
1

> <i_epik_Tot_abs_Q>
1

> <s_epik_Chemistry_Notes>
This compound contains a Lewis acid (boronic acid) which adds nucleophiles to form tetrahedral complexes, lowering the experimental pKa

$$$$
