6prc_ligand
                    3D
 Schrodinger Suite 2020-3.
 32 32  0  0  1  0            999 V2000
  132.1620   70.8490   -2.7220 N   0  0  0  0  0  0
  131.5570   69.7910   -2.2450 C   0  0  0  0  0  0
  131.2300   69.8650   -0.5320 Cl  0  0  0  0  0  0
  131.1660   68.6770   -2.8340 N   0  0  0  0  0  0
  131.4760   68.6810   -4.1640 C   0  0  0  0  0  0
  132.0950   69.6650   -4.8100 N   0  0  0  0  0  0
  132.4120   70.7240   -4.0550 C   0  0  0  0  0  0
  131.1100   67.5990   -4.8670 N   0  0  0  0  0  0
  130.4050   66.4260   -4.3700 C   0  0  2  0  0  0
  131.1720   65.6720   -3.3290 C   0  0  0  0  0  0
  131.7750   65.0570   -2.5430 N   0  0  0  0  0  0
  130.2860   65.3830   -5.4860 C   0  0  0  0  0  0
  128.9030   64.8120   -5.7040 C   0  0  0  0  0  0
  129.0590   66.8690   -3.7540 C   0  0  0  0  0  0
  133.0310   71.7780   -4.6260 N   0  0  0  0  0  0
  133.4340   72.9970   -3.9230 C   0  0  0  0  0  0
  133.5770   74.1430   -4.8680 C   0  0  0  0  0  0
  131.3992   67.6589   -5.9266 H   0  0  0  0  0  0
  130.5881   65.8338   -6.4428 H   0  0  0  0  0  0
  130.9407   64.5283   -5.2604 H   0  0  0  0  0  0
  128.9341   64.0785   -6.5231 H   0  0  0  0  0  0
  128.2081   65.6238   -5.9650 H   0  0  0  0  0  0
  128.5607   64.3184   -4.7825 H   0  0  0  0  0  0
  129.2439   67.6145   -2.9665 H   0  0  0  0  0  0
  128.5493   65.9960   -3.3202 H   0  0  0  0  0  0
  128.4256   67.3119   -4.5368 H   0  0  0  0  0  0
  133.2295   71.6730   -5.7028 H   0  0  0  0  0  0
  132.6736   73.2551   -3.1712 H   0  0  0  0  0  0
  134.4005   72.8305   -3.4248 H   0  0  0  0  0  0
  133.8798   75.0419   -4.3110 H   0  0  0  0  0  0
  132.6148   74.3282   -5.3680 H   0  0  0  0  0  0
  134.3417   73.9036   -5.6216 H   0  0  0  0  0  0
  1  2  2  0  0  0
  1  7  1  0  0  0
  2  3  1  0  0  0
  2  4  1  0  0  0
  4  5  2  0  0  0
  5  6  1  0  0  0
  5  8  1  0  0  0
  6  7  2  0  0  0
  7 15  1  0  0  0
  8  9  1  0  0  0
  8 18  1  0  0  0
  9 10  1  0  0  0
  9 12  1  0  0  0
  9 14  1  0  0  0
 10 11  3  0  0  0
 12 13  1  0  0  0
 12 19  1  0  0  0
 12 20  1  0  0  0
 13 21  1  0  0  0
 13 22  1  0  0  0
 13 23  1  0  0  0
 14 24  1  0  0  0
 14 25  1  0  0  0
 14 26  1  0  0  0
 15 16  1  0  0  0
 15 27  1  0  0  0
 16 17  1  0  0  0
 16 28  1  0  0  0
 16 29  1  0  0  0
 17 30  1  0  0  0
 17 31  1  0  0  0
 17 32  1  0  0  0
M  END
> <s_m_source_file>
../6prc_ligand.sdf

> <i_m_source_file_index>
1

> <s_epik_input>
Q2xjMW5jKFtOSF1bQ0gyXVtDSDNdKW5jKG4xKVtOSF1bQ0BAXShDI04pKFtDSDNdKVtDSDJdW0NIM10=

> <s_epik_cmdline>
J2VwaWtfYXBwJywgJy1pbWFlJywgJ2xpZ2FuZF9wcm8ubWFlJywgJy1vbWFlJywgJ2xpZ2FuZF9wcmVwLm1hZScsICctbXMnLCAnMScsICctcGgnLCAnNycsICctcGh0JywgJzAuNScsICctbnQn

> <r_lp_tautomer_probability>
1

> <r_epik_Ionization_Penalty>
  0.0001

> <r_epik_Ionization_Penalty_Charging>
  0.0000

> <r_epik_Ionization_Penalty_Neutral>
  0.0001

> <r_epik_State_Penalty>
 -0.0000

> <r_epik_Charging_Adjusted_Penalty>
0

> <i_epik_Tot_Q>
0

> <i_epik_Tot_abs_Q>
0

$$$$
