6tim_ligand
                    3D
 Schrodinger Suite 2020-3.
 17 16  0  0  1  0            999 V2000
   44.6970   13.8400   -8.2030 O   0  0  0  0  0  0
   45.1100   15.1900   -8.4090 C   0  0  0  0  0  0
   46.4780   15.1030   -9.0410 C   0  0  2  0  0  0
   47.4900   15.7400   -8.2220 O   0  0  0  0  0  0
   46.4740   15.5560  -10.5010 C   0  0  0  0  0  0
   47.6000   16.2500  -11.0660 O   0  0  0  0  0  0
   46.7160   18.1880  -12.4610 O   0  0  0  0  0  0
   48.8600   17.0020  -13.1090 O   0  5  0  0  0  0
   46.6490   15.7170  -13.2390 O   0  5  0  0  0  0
   47.4480   16.8590  -12.5590 P   0  0  0  0  0  0
   43.7184   13.6276   -7.7478 H   0  0  0  0  0  0
   44.3930   15.6956   -9.0725 H   0  0  0  0  0  0
   45.1472   15.7136   -7.4424 H   0  0  0  0  0  0
   46.7997   14.0511   -9.0330 H   0  0  0  0  0  0
   47.5766   15.4831   -7.1559 H   0  0  0  0  0  0
   46.3594   14.6800  -11.1564 H   0  0  0  0  0  0
   45.6371   16.2502  -10.6672 H   0  0  0  0  0  0
  1  2  1  0  0  0
  1 11  1  0  0  0
  2  3  1  0  0  0
  2 12  1  0  0  0
  2 13  1  0  0  0
  3  4  1  0  0  0
  3  5  1  0  0  0
  3 14  1  0  0  0
  4 15  1  0  0  0
  5  6  1  0  0  0
  5 16  1  0  0  0
  5 17  1  0  0  0
  6 10  1  0  0  0
  7 10  2  0  0  0
  8 10  1  0  0  0
  9 10  1  0  0  0
M  CHG  2   8  -1   9  -1
M  END
> <s_m_source_file>
../6tim_ligand.sdf

> <i_m_source_file_index>
1

> <s_epik_input>
W09IXVtDSDJdW0NASF0oW09IXSlbQ0gyXU9QKD1PKShbT0hdKVtPSF0=

> <s_epik_cmdline>
J2VwaWtfYXBwJywgJy1pbWFlJywgJ2xpZ2FuZF9wcm8ubWFlJywgJy1vbWFlJywgJ2xpZ2FuZF9wcmVwLm1hZScsICctbXMnLCAnMScsICctcGgnLCAnNycsICctcGh0JywgJzAuNScsICctbnQn

> <r_epik_Ionization_Penalty>
  0.1175

> <r_epik_Ionization_Penalty_Charging>
  0.1175

> <r_epik_Ionization_Penalty_Neutral>
  0.0000

> <r_epik_State_Penalty>
  0.1071

> <r_epik_Charging_Adjusted_Penalty>
0.224509443173243

> <i_epik_Tot_Q>
-2

> <i_epik_Tot_abs_Q>
2

$$$$
