7gch_ligand
                    3D
 Schrodinger Suite 2020-3.
 51 51  0  0  1  0            999 V2000
   34.9640   76.3580   85.4680 C   0  0  0  0  0  0
   35.0840   74.8140   85.4240 F   0  0  0  0  0  0
   34.4980   76.8280   83.9880 F   0  0  0  0  0  0
   33.7480   76.8190   86.3780 F   0  0  0  0  0  0
   36.1510   77.0760   86.0450 C   0  0  1  0  0  0
   35.8950   78.5660   86.0070 O   0  0  0  0  0  0
   36.1890   76.7310   87.4500 C   0  0  2  0  0  0
   37.2740   77.6330   88.1070 C   0  0  0  0  0  0
   37.7160   77.5960   89.5630 C   0  0  0  0  0  0
   36.9550   77.1780   90.5620 C   0  0  0  0  0  0
   37.3930   77.2180   91.8660 C   0  0  0  0  0  0
   38.6340   77.6800   92.1230 C   0  0  0  0  0  0
   39.4260   78.1040   91.1030 C   0  0  0  0  0  0
   38.9260   78.0580   89.8530 C   0  0  0  0  0  0
   36.6690   75.3320   87.5100 N   0  0  0  0  0  0
   35.9430   74.2590   88.0850 C   0  0  0  0  0  0
   34.8830   74.4890   88.6240 O   0  0  0  0  0  0
   36.8270   73.0220   87.9090 C   0  0  1  0  0  0
   36.9780   72.3140   89.1660 N   0  0  0  0  0  0
   37.0850   72.9250   90.2730 C   0  0  0  0  0  0
   37.9670   74.0270   90.6440 O   0  0  0  0  0  0
   36.3980   72.5650   91.2850 C   0  0  0  0  0  0
   36.5740   72.0190   86.7960 C   0  0  0  0  0  0
   37.6070   70.8850   86.5800 C   0  0  0  0  0  0
   38.0190   70.1860   87.9080 C   0  0  0  0  0  0
   38.9330   71.4000   85.9270 C   0  0  0  0  0  0
   37.0779   76.7943   85.5239 H   0  0  0  0  0  0
   35.8201   79.0867   85.0410 H   0  0  0  0  0  0
   35.1902   76.8304   87.9000 H   0  0  0  0  0  0
   38.2377   77.4753   87.6006 H   0  0  0  0  0  0
   36.9791   78.6886   88.0135 H   0  0  0  0  0  0
   35.9582   76.7931   90.3469 H   0  0  0  0  0  0
   36.7478   76.8819   92.6777 H   0  0  0  0  0  0
   39.0016   77.7133   93.1486 H   0  0  0  0  0  0
   40.4353   78.4702   91.2908 H   0  0  0  0  0  0
   39.5491   78.4199   89.0351 H   0  0  0  0  0  0
   37.6511   75.0690   87.0901 H   0  0  0  0  0  0
   37.7785   73.4794   87.6002 H   0  0  0  0  0  0
   37.0025   71.2143   89.1784 H   0  0  0  0  0  0
   35.7348   71.7345   91.0013 H   0  0  0  0  0  0
   35.7931   73.4132   91.6380 H   0  0  0  0  0  0
   37.0735   72.2367   92.0887 H   0  0  0  0  0  0
   35.6205   71.5017   86.9784 H   0  0  0  0  0  0
   36.5268   72.5457   85.8315 H   0  0  0  0  0  0
   37.0834   70.1794   85.9182 H   0  0  0  0  0  0
   37.1211   69.8015   88.4139 H   0  0  0  0  0  0
   38.5262   70.9108   88.5618 H   0  0  0  0  0  0
   38.7009   69.3517   87.6869 H   0  0  0  0  0  0
   38.7019   71.9065   84.9783 H   0  0  0  0  0  0
   39.6018   70.5482   85.7345 H   0  0  0  0  0  0
   39.4271   72.1073   86.6093 H   0  0  0  0  0  0
  1  2  1  0  0  0
  1  3  1  0  0  0
  1  4  1  0  0  0
  1  5  1  0  0  0
  5  6  1  0  0  0
  5  7  1  0  0  0
  5 27  1  0  0  0
  6 28  1  0  0  0
  7  8  1  0  0  0
  7 15  1  0  0  0
  7 29  1  0  0  0
  8  9  1  0  0  0
  8 30  1  0  0  0
  8 31  1  0  0  0
  9 10  2  0  0  0
  9 14  1  0  0  0
 10 11  1  0  0  0
 10 32  1  0  0  0
 11 12  2  0  0  0
 11 33  1  0  0  0
 12 13  1  0  0  0
 12 34  1  0  0  0
 13 14  2  0  0  0
 13 35  1  0  0  0
 14 36  1  0  0  0
 15 16  1  0  0  0
 15 37  1  0  0  0
 16 17  2  0  0  0
 16 18  1  0  0  0
 18 19  1  0  0  0
 18 23  1  0  0  0
 18 38  1  0  0  0
 19 20  1  0  0  0
 19 39  1  0  0  0
 20 21  2  0  0  0
 20 22  1  0  0  0
 22 40  1  0  0  0
 22 41  1  0  0  0
 22 42  1  0  0  0
 23 24  1  0  0  0
 23 43  1  0  0  0
 23 44  1  0  0  0
 24 25  1  0  0  0
 24 26  1  0  0  0
 24 45  1  0  0  0
 25 46  1  0  0  0
 25 47  1  0  0  0
 25 48  1  0  0  0
 26 49  1  0  0  0
 26 50  1  0  0  0
 26 51  1  0  0  0
M  END
> <s_m_source_file>
../7gch_ligand.sdf

> <i_m_source_file_index>
1

> <s_epik_input>
Tz1DKFtDSDNdKVtOSF1bQ0BASF0oW0NIMl1bQ0hdKFtDSDNdKVtDSDNdKUMoPU8pW05IXVtDQEhdKFtDQEBIXShDKEYpKEYpRilbT0hdKVtDSDJdYzFbY0hdW2NIXVtjSF1bY0hdW2NIXTE=

> <s_epik_cmdline>
J2VwaWtfYXBwJywgJy1pbWFlJywgJ2xpZ2FuZF9wcm8ubWFlJywgJy1vbWFlJywgJ2xpZ2FuZF9wcmVwLm1hZScsICctbXMnLCAnMScsICctcGgnLCAnNycsICctcGh0JywgJzAuNScsICctbnQn

> <r_lp_tautomer_probability>
1

> <r_epik_Ionization_Penalty>
  0.0022

> <r_epik_Ionization_Penalty_Charging>
  0.0000

> <r_epik_Ionization_Penalty_Neutral>
  0.0022

> <r_epik_State_Penalty>
 -0.0000

> <r_epik_Charging_Adjusted_Penalty>
0

> <i_epik_Tot_Q>
0

> <i_epik_Tot_abs_Q>
0

$$$$
