7gpb_ligand
                    3D
 Schrodinger Suite 2020-3.
 35 37  0  0  1  0            999 V2000
   64.8910  -16.3960   36.4870 P   0  0  0  0  0  0
   66.2430  -16.6980   37.0020 O   0  0  0  0  0  0
   64.7460  -16.5060   35.0190 O   0  5  0  0  0  0
   64.2450  -15.2100   37.0990 O   0  5  0  0  0  0
   64.0200  -17.6380   37.0390 O   0  0  0  0  0  0
   62.6460  -17.5170   37.4540 C   0  0  0  0  0  0
   62.2170  -18.7880   38.2050 C   0  0  1  0  0  0
   62.3670  -19.8890   37.2960 O   0  0  0  0  0  0
   63.0960  -19.1600   39.3960 C   0  0  1  0  0  0
   62.6710  -18.3760   40.5190 O   0  0  0  0  0  0
   62.7260  -20.6360   39.5630 C   0  0  1  0  0  0
   61.3740  -20.8180   40.0260 O   0  0  0  0  0  0
   62.7430  -21.0370   38.0720 C   0  0  2  0  0  0
   64.0750  -21.5040   37.5800 N   0  0  0  0  0  0
   65.1150  -20.7490   37.0670 C   0  0  0  0  0  0
   66.1420  -21.4600   36.6900 N   0  0  0  0  0  0
   65.7650  -22.7670   36.9680 C   0  0  0  0  0  0
   66.4260  -23.9890   36.7910 C   0  0  0  0  0  0
   67.6450  -24.0680   36.2650 N   0  0  0  0  0  0
   65.7800  -25.1010   37.1680 N   0  0  0  0  0  0
   64.5610  -24.9970   37.6840 C   0  0  0  0  0  0
   63.8300  -23.9130   37.9030 N   0  0  0  0  0  0
   64.5090  -22.8080   37.5120 C   0  0  0  0  0  0
   62.5391  -16.6473   38.1189 H   0  0  0  0  0  0
   62.0062  -17.3830   36.5693 H   0  0  0  0  0  0
   61.1788  -18.6442   38.5390 H   0  0  0  0  0  0
   64.1746  -18.9538   39.3322 H   0  0  0  0  0  0
   62.8683  -17.2941   40.5407 H   0  0  0  0  0  0
   63.3235  -21.1889   40.3029 H   0  0  0  0  0  0
   61.1156  -20.5930   41.0713 H   0  0  0  0  0  0
   62.0306  -21.8579   37.9028 H   0  0  0  0  0  0
   65.0796  -19.6626   36.9855 H   0  0  0  0  0  0
   68.1715  -23.1526   35.9570 H   0  0  0  0  0  0
   68.1267  -25.0487   36.1380 H   0  0  0  0  0  0
   64.0936  -25.9396   37.9688 H   0  0  0  0  0  0
  1  2  2  0  0  0
  1  3  1  0  0  0
  1  4  1  0  0  0
  1  5  1  0  0  0
  5  6  1  0  0  0
  6  7  1  0  0  0
  6 24  1  0  0  0
  6 25  1  0  0  0
  7  8  1  0  0  0
  7  9  1  0  0  0
  7 26  1  0  0  0
  8 13  1  0  0  0
  9 10  1  0  0  0
  9 11  1  0  0  0
  9 27  1  0  0  0
 10 28  1  0  0  0
 11 12  1  0  0  0
 11 13  1  0  0  0
 11 29  1  0  0  0
 12 30  1  0  0  0
 13 14  1  0  0  0
 13 31  1  0  0  0
 14 15  1  0  0  0
 14 23  1  0  0  0
 15 16  2  0  0  0
 15 32  1  0  0  0
 16 17  1  0  0  0
 17 18  2  0  0  0
 17 23  1  0  0  0
 18 19  1  0  0  0
 18 20  1  0  0  0
 19 33  1  0  0  0
 19 34  1  0  0  0
 20 21  2  0  0  0
 21 22  1  0  0  0
 21 35  1  0  0  0
 22 23  2  0  0  0
M  CHG  2   3  -1   4  -1
M  END
> <s_m_source_file>
../7gpb_ligand.sdf

> <i_m_source_file_index>
1

> <s_epik_input>
Tz1QKFtPSF0pKFtPSF0pT1tDSDJdW0NASF0xT1tDQEhdKFtDQEhdKFtPSF0pW0NAQEhdMVtPSF0pbihbY0hdbjIpYyhjMjMpbltjSF1uYzNbTkgyXQ==

> <s_epik_cmdline>
J2VwaWtfYXBwJywgJy1pbWFlJywgJ2xpZ2FuZF9wcm8ubWFlJywgJy1vbWFlJywgJ2xpZ2FuZF9wcmVwLm1hZScsICctbXMnLCAnMScsICctcGgnLCAnNycsICctcGh0JywgJzAuNScsICctbnQn

> <r_lp_tautomer_probability>
0.999997216410988

> <r_epik_Ionization_Penalty>
  0.1025

> <r_epik_Ionization_Penalty_Charging>
  0.1020

> <r_epik_Ionization_Penalty_Neutral>
  0.0004

> <r_epik_State_Penalty>
  0.0920

> <r_epik_Charging_Adjusted_Penalty>
0.194024004396068

> <i_epik_Tot_Q>
-2

> <i_epik_Tot_abs_Q>
2

> <s_epik_Chemistry_Notes>
This compound contains an acetal/aminal-like group ( X-CH(R)-Y where X, Y are N, S, or O) that may be acid/base labile, releasing an aldehyde.

$$$$
