7hvp_ligand
                    3D
 Schrodinger Suite 2020-3.
130131  0  0  1  0            999 V2000
    1.8900    6.1930    5.0320 C   0  0  0  0  0  0
    1.9330    5.1170    4.3950 O   0  0  0  0  0  0
    2.4200    7.5110    4.5260 C   0  0  0  0  0  0
    1.0850    6.0030    6.1060 N   0  0  0  0  0  0
    1.7030    5.7550    7.3760 C   0  0  2  0  0  0
    2.5360    4.5050    7.5630 C   0  0  0  0  0  0
    2.5860    3.5320    6.7940 O   0  0  0  0  0  0
    0.7460    5.8670    8.5450 C   0  0  0  0  0  0
    0.1500    7.1780    8.4830 O   0  0  0  0  0  0
    3.1770    4.6710    8.7260 N   0  0  0  0  0  0
    4.0830    3.6220    9.2140 C   0  0  2  0  0  0
    3.5330    3.2510   10.5710 C   0  0  0  0  0  0
    3.1160    4.1120   11.3100 O   0  0  0  0  0  0
    5.4450    4.2020    8.9740 C   0  0  0  0  0  0
    6.2150    4.0280    7.6840 C   0  0  0  0  0  0
    5.4030    3.6960    6.4770 C   0  0  0  0  0  0
    6.9000    5.3890    7.4620 C   0  0  0  0  0  0
    3.5060    1.9680   10.8460 N   0  0  0  0  0  0
    2.9800    1.3330   12.0640 C   0  0  2  0  0  0
    3.8620    0.1310   12.4520 C   0  0  0  0  0  0
    3.8420   -0.9570   11.8670 O   0  0  0  0  0  0
    1.5090    0.9180   11.9080 C   0  0  0  0  0  0
    0.6970    2.0820   11.3510 C   0  0  0  0  0  0
    0.4850    2.0330   10.1290 O   0  0  0  0  0  0
    0.3730    3.0610   12.1970 N   0  0  0  0  0  0
    4.6270    0.4750   13.4820 N   0  0  0  0  0  0
    5.6090   -0.3730   14.1650 C   0  0  2  0  0  0
    5.0400   -1.0900   15.3970 C   0  0  1  0  0  0
    4.8670   -0.0360   16.3930 O   0  0  0  0  0  0
    6.8300    0.5450   14.3650 C   0  0  0  0  0  0
    7.4270    0.7800   12.9640 C   0  0  0  0  0  0
    7.8070   -0.3190   12.1930 C   0  0  0  0  0  0
    7.6290    2.0510   12.4430 C   0  0  0  0  0  0
    8.3210   -0.1260   10.9420 C   0  0  0  0  0  0
    8.1910    2.2740   11.2040 C   0  0  0  0  0  0
    8.5030    1.1740   10.4430 C   0  0  0  0  0  0
    3.6670   -1.7210   15.0170 C   0  0  0  0  0  0
    3.0130   -2.9590   15.6070 N   0  3  2  0  0  0
    4.0320   -3.6730   16.4450 C   0  0  2  0  0  0
    5.3640   -4.1290   15.8560 C   0  0  0  0  0  0
    5.7260   -4.0200   14.6580 O   0  0  0  0  0  0
    3.0600   -4.8450   16.8340 C   0  0  0  0  0  0
    2.4080   -5.2020   15.5400 C   0  0  0  0  0  0
    2.3930   -3.9340   14.6930 C   0  0  0  0  0  0
    6.1730   -4.6260   16.7760 N   0  0  0  0  0  0
    7.4640   -5.2520   16.6960 C   0  0  2  0  0  0
    7.1170   -6.5180   17.5770 C   0  0  0  0  0  0
    6.6910   -6.3260   18.7100 O   0  0  0  0  0  0
    8.8620   -4.7610   17.1550 C   0  0  2  0  0  0
    9.3560   -3.4290   16.5960 C   0  0  0  0  0  0
    9.8760   -5.9420   16.8790 C   0  0  0  0  0  0
    9.2870   -3.1030   15.1110 C   0  0  0  0  0  0
    7.2880   -7.6670   16.9590 N   0  0  0  0  0  0
    6.9170   -8.8700   17.7320 C   0  0  2  0  0  0
    7.8460  -10.0170   17.4840 C   0  0  0  0  0  0
    8.4950  -10.3760   16.3200 O   0  0  0  0  0  0
    5.3920   -9.0430   17.4230 C   0  0  0  0  0  0
    5.1440  -10.3010   16.6130 C   0  0  0  0  0  0
    4.6400   -8.8680   18.7170 C   0  0  0  0  0  0
    9.4200  -10.2930   19.4970 C   0  0  0  0  0  0
    8.3170  -10.8830   18.5900 O   0  0  0  0  0  0
    3.0453    7.3380    3.6377 H   0  0  0  0  0  0
    3.0233    7.9895    5.3116 H   0  0  0  0  0  0
    1.5780    8.1668    4.2597 H   0  0  0  0  0  0
   -0.0115    6.0346    6.0247 H   0  0  0  0  0  0
    2.4055    6.5976    7.2946 H   0  0  0  0  0  0
   -0.0252    5.0868    8.4635 H   0  0  0  0  0  0
    1.3003    5.7378    9.4863 H   0  0  0  0  0  0
   -0.5856    7.4842    9.2414 H   0  0  0  0  0  0
    3.0282    5.5874    9.3159 H   0  0  0  0  0  0
    4.1564    2.6403    8.7232 H   0  0  0  0  0  0
    5.3986    5.2971    9.0662 H   0  0  0  0  0  0
    6.1504    3.8011    9.7168 H   0  0  0  0  0  0
    6.8697    3.1499    7.7855 H   0  0  0  0  0  0
    4.9082    2.7246    6.6238 H   0  0  0  0  0  0
    6.0599    3.6435    5.5963 H   0  0  0  0  0  0
    4.6423    4.4752    6.3211 H   0  0  0  0  0  0
    7.5023    5.6449    8.3462 H   0  0  0  0  0  0
    6.1347    6.1630    7.3031 H   0  0  0  0  0  0
    7.5523    5.3313    6.5782 H   0  0  0  0  0  0
    3.9356    1.3490   10.0446 H   0  0  0  0  0  0
    3.0297    2.1084   12.8426 H   0  0  0  0  0  0
    1.4401    0.0646   11.2174 H   0  0  0  0  0  0
    1.1034    0.6296   12.8889 H   0  0  0  0  0  0
    0.6242    2.9713   13.2642 H   0  0  0  0  0  0
   -0.1454    3.9581   11.8275 H   0  0  0  0  0  0
    4.4677    1.5108   13.8163 H   0  0  0  0  0  0
    5.8818   -1.2403   13.5458 H   0  0  0  0  0  0
    5.7022   -1.8627   15.8145 H   0  0  0  0  0  0
    5.7422    0.5131   16.7705 H   0  0  0  0  0  0
    6.5058    1.4924   14.8204 H   0  0  0  0  0  0
    7.5565    0.0500   15.0262 H   0  0  0  0  0  0
    7.6941   -1.3287   12.5877 H   0  0  0  0  0  0
    7.3296    2.9118   13.0409 H   0  0  0  0  0  0
    8.5912   -0.9853   10.3282 H   0  0  0  0  0  0
    8.3805    3.2846   10.8422 H   0  0  0  0  0  0
    8.8979    1.3122    9.4365 H   0  0  0  0  0  0
    2.8656   -0.9884   15.1928 H   0  0  0  0  0  0
    3.6761   -2.0066   13.9548 H   0  0  0  0  0  0
    2.1388   -2.5846   16.1599 H   0  0  0  0  0  0
    4.5052   -3.0167   17.1903 H   0  0  0  0  0  0
    3.6412   -5.6793   17.2538 H   0  0  0  0  0  0
    2.3370   -4.4886   17.5825 H   0  0  0  0  0  0
    2.9859   -5.9965   15.0452 H   0  0  0  0  0  0
    1.3847   -5.5575   15.7308 H   0  0  0  0  0  0
    1.3785   -3.5983   14.4321 H   0  0  0  0  0  0
    2.9986   -4.0158   13.7784 H   0  0  0  0  0  0
    5.6862   -4.4922   17.7533 H   0  0  0  0  0  0
    7.6463   -5.1388   15.6171 H   0  0  0  0  0  0
    8.7719   -4.4824   18.2153 H   0  0  0  0  0  0
    8.7888   -2.6058   17.0549 H   0  0  0  0  0  0
   10.4254   -3.3095   16.8244 H   0  0  0  0  0  0
    9.4748   -6.8757   17.3000 H   0  0  0  0  0  0
   10.8429   -5.7128   17.3507 H   0  0  0  0  0  0
   10.0158   -6.0592   15.7942 H   0  0  0  0  0  0
    9.6953   -2.0965   14.9372 H   0  0  0  0  0  0
    8.2396   -3.1366   14.7765 H   0  0  0  0  0  0
    9.8762   -3.8403   14.5460 H   0  0  0  0  0  0
    7.6783   -7.7695   15.9357 H   0  0  0  0  0  0
    7.0998   -8.7749   18.8125 H   0  0  0  0  0  0
    4.9533   -8.2825   16.7603 H   0  0  0  0  0  0
    5.7628  -10.2796   15.7038 H   0  0  0  0  0  0
    4.0816  -10.3529   16.3324 H   0  0  0  0  0  0
    5.4077  -11.1828   17.2153 H   0  0  0  0  0  0
    4.9277   -7.9136   19.1821 H   0  0  0  0  0  0
    4.8847   -9.6963   19.3982 H   0  0  0  0  0  0
    3.5586   -8.8664   18.5153 H   0  0  0  0  0  0
    9.6845  -11.0239   20.2753 H   0  0  0  0  0  0
    9.0514   -9.3708   19.9700 H   0  0  0  0  0  0
   10.3093  -10.0643   18.8913 H   0  0  0  0  0  0
  1  2  2  0  0  0
  1  3  1  0  0  0
  1  4  1  0  0  0
  3 62  1  0  0  0
  3 63  1  0  0  0
  3 64  1  0  0  0
  4  5  1  0  0  0
  4 65  1  0  0  0
  5  8  1  0  0  0
  5  6  1  0  0  0
  5 66  1  0  0  0
  6  7  2  0  0  0
  6 10  1  0  0  0
  8  9  1  0  0  0
  8 67  1  0  0  0
  8 68  1  0  0  0
  9 69  1  0  0  0
 10 11  1  0  0  0
 10 70  1  0  0  0
 11 14  1  0  0  0
 11 12  1  0  0  0
 11 71  1  0  0  0
 12 13  2  0  0  0
 12 18  1  0  0  0
 14 15  1  0  0  0
 14 72  1  0  0  0
 14 73  1  0  0  0
 15 16  1  0  0  0
 15 17  1  0  0  0
 15 74  1  0  0  0
 16 75  1  0  0  0
 16 76  1  0  0  0
 16 77  1  0  0  0
 17 78  1  0  0  0
 17 79  1  0  0  0
 17 80  1  0  0  0
 18 19  1  0  0  0
 18 81  1  0  0  0
 19 22  1  0  0  0
 19 20  1  0  0  0
 19 82  1  0  0  0
 20 21  2  0  0  0
 20 26  1  0  0  0
 22 23  1  0  0  0
 22 83  1  0  0  0
 22 84  1  0  0  0
 23 25  1  0  0  0
 23 24  2  0  0  0
 25 85  1  0  0  0
 25 86  1  0  0  0
 26 27  1  0  0  0
 26 87  1  0  0  0
 27 30  1  0  0  0
 27 28  1  0  0  0
 27 88  1  0  0  0
 28 29  1  0  0  0
 28 37  1  0  0  0
 28 89  1  0  0  0
 29 90  1  0  0  0
 30 31  1  0  0  0
 30 91  1  0  0  0
 30 92  1  0  0  0
 31 32  2  0  0  0
 31 33  1  0  0  0
 32 34  1  0  0  0
 32 93  1  0  0  0
 33 35  2  0  0  0
 33 94  1  0  0  0
 34 36  2  0  0  0
 34 95  1  0  0  0
 35 36  1  0  0  0
 35 96  1  0  0  0
 36 97  1  0  0  0
 37 38  1  0  0  0
 37 98  1  0  0  0
 37 99  1  0  0  0
 38 39  1  0  0  0
 38 44  1  0  0  0
 38100  1  0  0  0
 39 40  1  0  0  0
 39 42  1  0  0  0
 39101  1  0  0  0
 40 41  2  0  0  0
 40 45  1  0  0  0
 42 43  1  0  0  0
 42102  1  0  0  0
 42103  1  0  0  0
 43 44  1  0  0  0
 43104  1  0  0  0
 43105  1  0  0  0
 44106  1  0  0  0
 44107  1  0  0  0
 45 46  1  0  0  0
 45108  1  0  0  0
 46 49  1  0  0  0
 46 47  1  0  0  0
 46109  1  0  0  0
 47 48  2  0  0  0
 47 53  1  0  0  0
 49 51  1  0  0  0
 49 50  1  0  0  0
 49110  1  0  0  0
 50 52  1  0  0  0
 50111  1  0  0  0
 50112  1  0  0  0
 51113  1  0  0  0
 51114  1  0  0  0
 51115  1  0  0  0
 52116  1  0  0  0
 52117  1  0  0  0
 52118  1  0  0  0
 53 54  1  0  0  0
 53119  1  0  0  0
 54 57  1  0  0  0
 54 55  1  0  0  0
 54120  1  0  0  0
 55 56  2  0  0  0
 55 61  1  0  0  0
 57 59  1  0  0  0
 57 58  1  0  0  0
 57121  1  0  0  0
 58122  1  0  0  0
 58123  1  0  0  0
 58124  1  0  0  0
 59125  1  0  0  0
 59126  1  0  0  0
 59127  1  0  0  0
 60 61  1  0  0  0
 60128  1  0  0  0
 60129  1  0  0  0
 60130  1  0  0  0
M  CHG  1  38   1
M  END
> <s_m_source_file>
../7hvp_ligand.sdf

> <i_m_source_file_index>
1

> <s_epik_input>
Tz1DKFtDSDNdKVtOSF1bQ0BASF0oW0NIMl1bT0hdKUMoPU8pW05IXVtDQEBIXShbQ0gyXVtDSF0oW0NIM10pW0NIM10pQyg9TylbTkhdW0NAQEhdKFtDSDJdQyg9TylbTkgyXSlDKD1PKVtOSF1bQ0BASF0oW0NIMl1jMVtjSF1bY0hdW2NIXVtjSF1bY0hdMSlbQ0BASF0oW09IXSlbQ0gyXVtOQEBIK10yW0NAQEhdKFtDSDJdW0NIMl1bQ0gyXTIpQyg9TylbTkhdW0NAQEhdKFtDQEBIXShbQ0gzXSlbQ0gyXVtDSDNdKUMoPU8pW05IXVtDQEBIXShbQ0hdKFtDSDNdKVtDSDNdKUMoPU8pT1tDSDNd

> <s_epik_cmdline>
J2VwaWtfYXBwJywgJy1pbWFlJywgJ2xpZ2FuZF9wcm8ubWFlJywgJy1vbWFlJywgJ2xpZ2FuZF9wcmVwLm1hZScsICctbXMnLCAnMScsICctcGgnLCAnNycsICctcGh0JywgJzAuNScsICctbnQn

> <r_epik_Ionization_Penalty>
  0.0122

> <r_epik_Ionization_Penalty_Charging>
  0.0122

> <r_epik_Ionization_Penalty_Neutral>
  0.0000

> <r_epik_State_Penalty>
  0.0094

> <r_epik_Charging_Adjusted_Penalty>
0.0216428610901907

> <i_epik_Tot_Q>
1

> <i_epik_Tot_abs_Q>
1

> <s_epik_Chemistry_Notes>
This compound has an ester and may undergo hydrolysis at high or low pH.

$$$$
