7kme_ligand
                    3D
 Schrodinger Suite 2020-3.
 81 83  0  0  1  0            999 V2000
   17.1830  -13.0920   19.9320 N   0  0  0  0  0  0
   16.2520  -12.7200   20.8510 C   0  0  2  0  0  0
   15.8890  -13.8980   21.6630 C   0  0  0  0  0  0
   15.7060  -13.8480   22.9360 O   0  0  0  0  0  0
   18.9700  -13.6290   21.3040 O   0  0  0  0  0  0
   19.3800  -12.9130   18.9610 C   0  0  0  0  0  0
   18.4600  -13.2120   20.0640 C   0  0  0  0  0  0
   10.8860  -10.2570   24.5510 N   0  3  0  0  0  0
   10.0420  -12.1350   24.0130 N   0  0  0  0  0  0
   13.9100  -11.8440   21.0910 C   0  0  0  0  0  0
   12.8690  -12.8540   21.2740 C   0  0  0  0  0  0
   11.8690  -12.5930   22.1980 C   0  0  0  0  0  0
   11.8780  -11.4260   23.0010 C   0  0  0  0  0  0
   12.8540  -10.5110   22.8090 C   0  0  0  0  0  0
   13.8480  -10.7230   21.8400 C   0  0  0  0  0  0
   14.9020  -12.0870   20.1450 C   0  0  0  0  0  0
   10.9600  -11.2390   23.8670 C   0  0  0  0  0  0
   14.1640  -17.0260   20.6410 C   0  0  0  0  0  0
   13.5110  -18.1410   21.5080 C   0  0  0  0  0  0
   12.3520  -18.7530   20.7480 C   0  0  0  0  0  0
   11.3160  -17.6690   20.4930 C   0  0  0  0  0  0
   12.0310  -16.7160   19.5180 C   0  0  0  0  0  0
   13.0980  -16.1210   20.2590 C   0  0  0  0  0  0
   15.0130  -16.1900   21.6330 C   0  0  1  0  0  0
   16.1600  -17.0100   22.2910 C   0  0  0  0  0  0
   15.5850  -14.9890   21.0270 N   0  0  0  0  0  0
   17.1540  -17.4110   21.6370 O   0  0  0  0  0  0
   16.1180  -17.1110   23.7880 N   0  0  0  0  0  0
   17.1110  -17.9460   24.5690 C   0  0  2  0  0  0
   16.5940  -19.3330   24.7570 C   0  0  0  0  0  0
   15.1360  -19.7050   24.8520 O   0  0  0  0  0  0
   21.0380  -15.8350   25.3890 N   0  0  0  0  0  0
   20.9250  -14.7830   24.4640 C   0  0  0  0  0  0
   19.6920  -14.5210   23.9610 C   0  0  0  0  0  0
   18.5770  -15.2240   24.3420 C   0  0  0  0  0  0
   17.4970  -17.0130   25.6500 C   0  0  0  0  0  0
   18.6740  -16.2240   25.2660 C   0  0  0  0  0  0
   19.9290  -16.5860   25.7830 C   0  0  0  0  0  0
   22.2260  -16.1590   25.8950 C   0  0  0  0  0  0
   16.8741  -13.3415   18.9062 H   0  0  0  0  0  0
   16.8437  -12.0261   21.4662 H   0  0  0  0  0  0
   18.8037  -12.6044   18.0763 H   0  0  0  0  0  0
   19.9682  -13.8109   18.7205 H   0  0  0  0  0  0
   20.0578  -12.0996   19.2592 H   0  0  0  0  0  0
   10.0691  -10.1552   25.2806 H   0  0  0  0  0  0
    9.2436  -11.9886   24.7554 H   0  0  0  0  0  0
   10.0582  -13.0448   23.3950 H   0  0  0  0  0  0
   12.8788  -13.7821   20.7025 H   0  0  0  0  0  0
   11.0524  -13.3062   22.3098 H   0  0  0  0  0  0
   12.8697   -9.6021   23.4105 H   0  0  0  0  0  0
   14.6009   -9.9499   21.6864 H   0  0  0  0  0  0
   15.1574  -11.1381   19.6507 H   0  0  0  0  0  0
   14.5117  -12.7953   19.3994 H   0  0  0  0  0  0
   14.6884  -17.4033   19.7507 H   0  0  0  0  0  0
   14.2575  -18.9181   21.7289 H   0  0  0  0  0  0
   13.1449  -17.7061   22.4497 H   0  0  0  0  0  0
   12.7140  -19.1588   19.7918 H   0  0  0  0  0  0
   11.9085  -19.5630   21.3456 H   0  0  0  0  0  0
   10.4140  -18.1200   20.0536 H   0  0  0  0  0  0
   11.0557  -17.1798   21.4432 H   0  0  0  0  0  0
   12.4140  -17.2885   18.6604 H   0  0  0  0  0  0
   11.3212  -15.9544   19.1628 H   0  0  0  0  0  0
   12.6466  -15.6843   21.1620 H   0  0  0  0  0  0
   13.5072  -15.3178   19.6285 H   0  0  0  0  0  0
   14.3089  -15.8218   22.3937 H   0  0  0  0  0  0
   15.7913  -14.9629   19.9468 H   0  0  0  0  0  0
   15.3322  -16.5525   24.3177 H   0  0  0  0  0  0
   18.0745  -18.2726   24.1507 H   0  0  0  0  0  0
   16.9230  -19.9638   23.9180 H   0  0  0  0  0  0
   16.9832  -19.7447   25.6999 H   0  0  0  0  0  0
   14.8446  -20.7565   24.9911 H   0  0  0  0  0  0
   21.7948  -14.1996   24.1620 H   0  0  0  0  0  0
   19.6055  -13.7110   23.2218 H   0  0  0  0  0  0
   17.5979  -14.9829   23.9023 H   0  0  0  0  0  0
   16.6631  -16.3261   25.8566 H   0  0  0  0  0  0
   17.7356  -17.5840   26.5594 H   0  0  0  0  0  0
   20.0142  -17.4370   26.4747 H   0  0  0  0  0  0
   22.9932  -15.4813   25.4924 H   0  0  0  0  0  0
   22.4714  -17.1954   25.6199 H   0  0  0  0  0  0
   22.1950  -16.0680   26.9908 H   0  0  0  0  0  0
   11.6350   -9.4579   24.4489 H   0  0  0  0  0  0
  1  7  1  0  0  0
  1  2  1  0  0  0
  1 40  1  0  0  0
  2 16  1  0  0  0
  2  3  1  0  0  0
  2 41  1  0  0  0
  3  4  2  0  0  0
  3 26  1  0  0  0
  5  7  2  0  0  0
  6  7  1  0  0  0
  6 42  1  0  0  0
  6 43  1  0  0  0
  6 44  1  0  0  0
  8 17  2  0  0  0
  8 45  1  0  0  0
  8 81  1  0  0  0
  9 17  1  0  0  0
  9 46  1  0  0  0
  9 47  1  0  0  0
 10 16  1  0  0  0
 10 15  2  0  0  0
 10 11  1  0  0  0
 11 12  2  0  0  0
 11 48  1  0  0  0
 12 13  1  0  0  0
 12 49  1  0  0  0
 13 17  1  0  0  0
 13 14  2  0  0  0
 14 15  1  0  0  0
 14 50  1  0  0  0
 15 51  1  0  0  0
 16 52  1  0  0  0
 16 53  1  0  0  0
 18 24  1  0  0  0
 18 23  1  0  0  0
 18 19  1  0  0  0
 18 54  1  0  0  0
 19 20  1  0  0  0
 19 55  1  0  0  0
 19 56  1  0  0  0
 20 21  1  0  0  0
 20 57  1  0  0  0
 20 58  1  0  0  0
 21 22  1  0  0  0
 21 59  1  0  0  0
 21 60  1  0  0  0
 22 23  1  0  0  0
 22 61  1  0  0  0
 22 62  1  0  0  0
 23 63  1  0  0  0
 23 64  1  0  0  0
 24 26  1  0  0  0
 24 25  1  0  0  0
 24 65  1  0  0  0
 25 27  2  0  0  0
 25 28  1  0  0  0
 26 66  1  0  0  0
 28 29  1  0  0  0
 28 67  1  0  0  0
 29 36  1  0  0  0
 29 30  1  0  0  0
 29 68  1  0  0  0
 30 31  1  0  0  0
 30 69  1  0  0  0
 30 70  1  0  0  0
 31 71  1  0  0  0
 32 33  1  0  0  0
 32 39  1  0  0  0
 32 38  1  0  0  0
 33 34  1  0  0  0
 33 72  1  0  0  0
 34 35  2  0  0  0
 34 73  1  0  0  0
 35 37  1  0  0  0
 35 74  1  0  0  0
 36 37  1  0  0  0
 36 75  1  0  0  0
 36 76  1  0  0  0
 37 38  2  0  0  0
 38 77  1  0  0  0
 39 78  1  0  0  0
 39 79  1  0  0  0
 39 80  1  0  0  0
M  CHG  1   8   1
M  END
> <s_m_source_file>
../7kme_ligand.sdf

> <i_m_source_file_index>
1

> <s_epik_input>
W0hdL049QygvW05IMl0pYyhbY0hdW2NIXTEpW2NIXVtjSF1jMVtDSDJdW0NASF0oW05IXUMoPU8pW0NIM10pQyg9TylbTkhdW0NAQEhdKFtDSF0yW0NIMl1bQ0gyXVtDSDJdW0NIMl1bQ0gyXTIpQyg9TylbTkhdW0NASF0oW0NIMl1bT0hdKVtDSDJdQyg9W0NIXTMpW0NIXT1bQ0hdW0NIMl1OM1tDSDNd

> <s_epik_cmdline>
J2VwaWtfYXBwJywgJy1pbWFlJywgJ2xpZ2FuZF9wcm8ubWFlJywgJy1vbWFlJywgJ2xpZ2FuZF9wcmVwLm1hZScsICctbXMnLCAnMScsICctcGgnLCAnNycsICctcGh0JywgJzAuNScsICctbnQn

> <r_lp_tautomer_probability>
1

> <r_epik_Ionization_Penalty>
  0.0002

> <r_epik_Ionization_Penalty_Charging>
  0.0002

> <r_epik_Ionization_Penalty_Neutral>
  0.0000

> <r_epik_State_Penalty>
 -0.0000

> <r_epik_Charging_Adjusted_Penalty>
0.000162947685306239

> <i_epik_Tot_Q>
1

> <i_epik_Tot_abs_Q>
1

> <s_epik_Chemistry_Notes>
This compound has an imine and may undergo hydrolysis.

$$$$
