7lpr_ligand
                    3D
 Schrodinger Suite 2020-3.
 58 58  0  0  1  0            999 V2000
   14.0270   42.0650   18.3700 N   0  3  0  0  0  0
   14.3310   40.6400   18.2050 C   0  0  2  0  0  0
   13.4040   39.4800   18.5660 C   0  0  0  0  0  0
   12.7240   39.3530   19.6150 O   0  0  0  0  0  0
   15.5330   40.2290   19.0910 C   0  0  0  0  0  0
   13.4700   38.5160   17.6510 N   0  0  0  0  0  0
   12.6800   37.2710   17.8890 C   0  0  2  0  0  0
   13.6360   36.1110   17.5940 C   0  0  0  0  0  0
   14.5190   36.4260   16.8030 O   0  0  0  0  0  0
   11.4660   37.1600   16.9950 C   0  0  0  0  0  0
   13.3670   34.9770   18.1750 N   0  0  0  0  0  0
   14.1710   33.7820   17.8970 C   0  0  2  0  0  0
   13.8380   33.3480   16.4520 C   0  0  0  0  0  0
   12.6230   33.4390   16.0700 O   0  0  0  0  0  0
   13.5700   32.7150   18.8440 C   0  0  0  0  0  0
   12.5920   33.4000   19.7360 C   0  0  0  0  0  0
   12.2250   34.7340   19.1030 C   0  0  0  0  0  0
   14.5320   32.3950   14.3130 C   0  0  2  0  0  0
   15.3410   33.3480   13.3360 C   0  0  0  0  0  0
   15.0330   34.8400   13.4990 C   0  0  0  0  0  0
   16.0010   35.7270   12.7170 C   0  0  0  0  0  0
   13.6530   35.0710   12.8710 C   0  0  0  0  0  0
   14.8130   32.8620   15.7120 N   0  0  0  0  0  0
   14.8540   30.8770   14.1120 B   0  0  0  0  0  0
   14.8690   30.3800   12.7030 O   0  0  0  0  0  0
   14.0080   30.0250   14.9890 O   0  0  0  0  0  0
   13.1717   42.3336   17.7326 H   0  0  0  0  0  0
   14.9033   42.6629   18.0790 H   0  0  0  0  0  0
   13.7780   42.2673   19.4222 H   0  0  0  0  0  0
   14.3535   40.7531   17.1111 H   0  0  0  0  0  0
   16.3434   40.9634   18.9732 H   0  0  0  0  0  0
   15.8914   39.2352   18.7847 H   0  0  0  0  0  0
   15.2179   40.1965   20.1444 H   0  0  0  0  0  0
   14.0812   38.6141   16.7417 H   0  0  0  0  0  0
   12.2958   37.2898   18.9196 H   0  0  0  0  0  0
   10.7783   37.9923   17.2055 H   0  0  0  0  0  0
   10.9553   36.2049   17.1871 H   0  0  0  0  0  0
   11.7811   37.2021   15.9419 H   0  0  0  0  0  0
   15.2460   33.9713   18.0331 H   0  0  0  0  0  0
   13.0666   31.9386   18.2491 H   0  0  0  0  0  0
   14.3745   32.2574   19.4384 H   0  0  0  0  0  0
   11.6944   32.7737   19.8454 H   0  0  0  0  0  0
   13.0481   33.5628   20.7237 H   0  0  0  0  0  0
   12.1674   35.5524   19.8357 H   0  0  0  0  0  0
   11.2882   34.6901   18.5281 H   0  0  0  0  0  0
   13.4478   32.4703   14.1433 H   0  0  0  0  0  0
   16.4196   33.2243   13.5130 H   0  0  0  0  0  0
   15.1083   33.0869   12.2931 H   0  0  0  0  0  0
   15.1036   35.0939   14.5670 H   0  0  0  0  0  0
   17.0168   35.6066   13.1214 H   0  0  0  0  0  0
   15.6915   36.7785   12.8100 H   0  0  0  0  0  0
   15.9914   35.4344   11.6567 H   0  0  0  0  0  0
   12.9050   34.4562   13.3930 H   0  0  0  0  0  0
   13.6821   34.7892   11.8081 H   0  0  0  0  0  0
   13.3822   36.1333   12.9615 H   0  0  0  0  0  0
   15.8331   32.7982   16.1187 H   0  0  0  0  0  0
   15.4545   30.9117   11.9384 H   0  0  0  0  0  0
   13.9015   30.2694   16.0562 H   0  0  0  0  0  0
  1  2  1  0  0  0
  1 27  1  0  0  0
  1 28  1  0  0  0
  1 29  1  0  0  0
  2  3  1  0  0  0
  2  5  1  0  0  0
  2 30  1  0  0  0
  3  4  2  0  0  0
  3  6  1  0  0  0
  5 31  1  0  0  0
  5 32  1  0  0  0
  5 33  1  0  0  0
  6  7  1  0  0  0
  6 34  1  0  0  0
  7  8  1  0  0  0
  7 10  1  0  0  0
  7 35  1  0  0  0
  8  9  2  0  0  0
  8 11  1  0  0  0
 10 36  1  0  0  0
 10 37  1  0  0  0
 10 38  1  0  0  0
 11 12  1  0  0  0
 11 17  1  0  0  0
 12 13  1  0  0  0
 12 15  1  0  0  0
 12 39  1  0  0  0
 13 14  2  0  0  0
 13 23  1  0  0  0
 15 16  1  0  0  0
 15 40  1  0  0  0
 15 41  1  0  0  0
 16 17  1  0  0  0
 16 42  1  0  0  0
 16 43  1  0  0  0
 17 44  1  0  0  0
 17 45  1  0  0  0
 18 19  1  0  0  0
 18 23  1  0  0  0
 18 24  1  0  0  0
 18 46  1  0  0  0
 19 20  1  0  0  0
 19 47  1  0  0  0
 19 48  1  0  0  0
 20 21  1  0  0  0
 20 22  1  0  0  0
 20 49  1  0  0  0
 21 50  1  0  0  0
 21 51  1  0  0  0
 21 52  1  0  0  0
 22 53  1  0  0  0
 22 54  1  0  0  0
 22 55  1  0  0  0
 23 56  1  0  0  0
 24 25  1  0  0  0
 24 26  1  0  0  0
 25 57  1  0  0  0
 26 58  1  0  0  0
M  CHG  1   1   1
M  END
> <s_m_source_file>
../7lpr_ligand.sdf

> <i_m_source_file_index>
1

> <s_epik_input>
W05IMytdW0NAQEhdKFtDSDNdKUMoPU8pW05IXVtDQEBIXShbQ0gzXSlDKD1PKU4xW0NAQEhdKFtDSDJdW0NIMl1bQ0gyXTEpQyg9TylbTkhdW0NASF0oQihbT0hdKVtPSF0pW0NIMl1bQ0hdKFtDSDNdKVtDSDNd

> <s_epik_cmdline>
J2VwaWtfYXBwJywgJy1pbWFlJywgJ2xpZ2FuZF9wcm8ubWFlJywgJy1vbWFlJywgJ2xpZ2FuZF9wcmVwLm1hZScsICctbXMnLCAnMScsICctcGgnLCAnNycsICctcGh0JywgJzAuNScsICctbnQn

> <r_epik_Ionization_Penalty>
  0.1233

> <r_epik_Ionization_Penalty_Charging>
  0.1233

> <r_epik_Ionization_Penalty_Neutral>
  0.0000

> <r_epik_State_Penalty>
  0.1128

> <r_epik_Charging_Adjusted_Penalty>
0.236084207461101

> <i_epik_Tot_Q>
1

> <i_epik_Tot_abs_Q>
1

> <s_epik_Chemistry_Notes>
This compound contains a Lewis acid (boronic acid) which adds nucleophiles to form tetrahedral complexes, lowering the experimental pKa

$$$$
