7prc_ligand
                    3D
 Schrodinger Suite 2020-3.
 32 32  0  0  1  0            999 V2000
  132.0550   70.7860   -2.6830 N   0  0  0  0  0  0
  131.5200   69.7050   -2.1990 C   0  0  0  0  0  0
  131.1710   69.7820   -0.4740 Cl  0  0  0  0  0  0
  131.2010   68.5720   -2.7680 N   0  0  0  0  0  0
  131.4810   68.5820   -4.1020 C   0  0  0  0  0  0
  132.0340   69.6060   -4.7680 N   0  0  0  0  0  0
  132.3000   70.6750   -4.0290 C   0  0  0  0  0  0
  131.1740   67.4980   -4.8070 N   0  0  0  0  0  0
  130.5390   66.2900   -4.2840 C   0  0  1  0  0  0
  131.4040   65.6450   -3.2890 C   0  0  0  0  0  0
  132.0690   65.0980   -2.4640 N   0  0  0  0  0  0
  129.2150   66.6890   -3.6510 C   0  0  0  0  0  0
  128.3000   67.2250   -4.7240 C   0  0  0  0  0  0
  130.3090   65.3050   -5.4500 C   0  0  0  0  0  0
  132.8510   71.7500   -4.6160 N   0  0  0  0  0  0
  133.1950   72.9960   -3.9250 C   0  0  0  0  0  0
  133.6730   74.0740   -4.8530 C   0  0  0  0  0  0
  131.4400   67.5623   -5.8724 H   0  0  0  0  0  0
  128.7555   65.8093   -3.1768 H   0  0  0  0  0  0
  129.3908   67.4650   -2.8915 H   0  0  0  0  0  0
  127.3392   67.5163   -4.2746 H   0  0  0  0  0  0
  128.1292   66.4469   -5.4825 H   0  0  0  0  0  0
  128.7645   68.1027   -5.1972 H   0  0  0  0  0  0
  131.2772   65.0293   -5.8934 H   0  0  0  0  0  0
  129.6783   65.7825   -6.2143 H   0  0  0  0  0  0
  129.8077   64.4013   -5.0731 H   0  0  0  0  0  0
  133.0425   71.6482   -5.6944 H   0  0  0  0  0  0
  132.3088   73.3799   -3.3983 H   0  0  0  0  0  0
  133.9981   72.8028   -3.1986 H   0  0  0  0  0  0
  133.9130   74.9773   -4.2729 H   0  0  0  0  0  0
  132.8835   74.3060   -5.5830 H   0  0  0  0  0  0
  134.5728   73.7289   -5.3833 H   0  0  0  0  0  0
  1  2  2  0  0  0
  1  7  1  0  0  0
  2  3  1  0  0  0
  2  4  1  0  0  0
  4  5  2  0  0  0
  5  6  1  0  0  0
  5  8  1  0  0  0
  6  7  2  0  0  0
  7 15  1  0  0  0
  8  9  1  0  0  0
  8 18  1  0  0  0
  9 10  1  0  0  0
  9 12  1  0  0  0
  9 14  1  0  0  0
 10 11  3  0  0  0
 12 13  1  0  0  0
 12 19  1  0  0  0
 12 20  1  0  0  0
 13 21  1  0  0  0
 13 22  1  0  0  0
 13 23  1  0  0  0
 14 24  1  0  0  0
 14 25  1  0  0  0
 14 26  1  0  0  0
 15 16  1  0  0  0
 15 27  1  0  0  0
 16 17  1  0  0  0
 16 28  1  0  0  0
 16 29  1  0  0  0
 17 30  1  0  0  0
 17 31  1  0  0  0
 17 32  1  0  0  0
M  END
> <s_m_source_file>
../7prc_ligand.sdf

> <i_m_source_file_index>
1

> <s_epik_input>
Q2xjMW5jKFtOSF1bQ0gyXVtDSDNdKW5jKG4xKVtOSF1bQ0BdKEMjTikoW0NIM10pW0NIMl1bQ0gzXQ==

> <s_epik_cmdline>
J2VwaWtfYXBwJywgJy1pbWFlJywgJ2xpZ2FuZF9wcm8ubWFlJywgJy1vbWFlJywgJ2xpZ2FuZF9wcmVwLm1hZScsICctbXMnLCAnMScsICctcGgnLCAnNycsICctcGh0JywgJzAuNScsICctbnQn

> <r_lp_tautomer_probability>
1

> <r_epik_Ionization_Penalty>
  0.0001

> <r_epik_Ionization_Penalty_Charging>
  0.0000

> <r_epik_Ionization_Penalty_Neutral>
  0.0001

> <r_epik_State_Penalty>
 -0.0000

> <r_epik_Charging_Adjusted_Penalty>
0

> <i_epik_Tot_Q>
0

> <i_epik_Tot_abs_Q>
0

$$$$
