830c_ligand
                    3D
 Schrodinger Suite 2020-3.
 48 50  0  0  1  0            999 V2000
   -7.5670   27.8520   49.3020 C   0  0  0  0  0  0
   -8.8400   27.6210   48.8430 C   0  0  0  0  0  0
   -9.7960   26.8980   49.5520 C   0  0  0  0  0  0
   -9.4490   26.3890   50.7850 C   0  0  0  0  0  0
   -8.1740   26.5880   51.2560 C   0  0  0  0  0  0
   -7.2200   27.3250   50.5210 C   0  0  0  0  0  0
   -7.9490   25.9670   52.4690 O   0  0  0  0  0  0
   -7.3430   26.6340   53.4810 C   0  0  0  0  0  0
   -6.8690   25.8010   54.4830 C   0  0  0  0  0  0
   -6.2710   26.3220   55.6000 C   0  0  0  0  0  0
   -6.1960   27.7030   55.7310 C   0  0  0  0  0  0
   -6.6340   28.5470   54.7140 C   0  0  0  0  0  0
   -7.2090   28.0220   53.5770 C   0  0  0  0  0  0
   -5.5190   28.4130   57.2150 S   0  0  0  0  0  0
   -5.5820   27.5070   58.3390 O   0  0  0  0  0  0
   -6.2980   29.6010   57.3620 O   0  0  0  0  0  0
   -3.8780   28.9410   56.7980 C   0  0  0  0  0  0
   -2.6760   27.9890   57.0640 C   0  0  0  0  0  0
   -2.6850   27.4130   58.5200 C   0  0  0  0  0  0
   -1.3450   26.8280   58.9610 C   0  0  0  0  0  0
   -0.3120   27.8030   58.7340 O   0  0  0  0  0  0
   -0.1380   28.1300   57.3600 C   0  0  0  0  0  0
   -1.3990   28.8550   56.8740 C   0  0  0  0  0  0
   -2.6820   26.8850   55.9850 C   0  0  0  0  0  0
   -2.7380   25.5740   56.2570 N   0  0  0  0  0  0
   -2.5940   27.1550   54.7780 O   0  0  0  0  0  0
   -2.5310   24.7710   55.1030 O   0  0  0  0  0  0
   -9.3060   28.2050   47.3000 Cl  0  0  0  0  0  0
   -6.8551   28.4348   48.7176 H   0  0  0  0  0  0
  -10.7934   26.7387   49.1422 H   0  0  0  0  0  0
  -10.1768   25.8358   51.3786 H   0  0  0  0  0  0
   -6.2161   27.4743   50.9184 H   0  0  0  0  0  0
   -6.9732   24.7208   54.3809 H   0  0  0  0  0  0
   -5.8627   25.6669   56.3696 H   0  0  0  0  0  0
   -6.5218   29.6263   54.8175 H   0  0  0  0  0  0
   -7.5509   28.6730   52.7724 H   0  0  0  0  0  0
   -3.8234   29.1513   55.7197 H   0  0  0  0  0  0
   -3.6316   29.8525   57.3623 H   0  0  0  0  0  0
   -2.9404   28.2138   59.2295 H   0  0  0  0  0  0
   -3.4314   26.6081   58.5913 H   0  0  0  0  0  0
   -1.3892   26.5761   60.0309 H   0  0  0  0  0  0
   -1.1322   25.9192   58.3789 H   0  0  0  0  0  0
    0.7398   28.7832   57.2469 H   0  0  0  0  0  0
    0.0140   27.2078   56.7800 H   0  0  0  0  0  0
   -1.2710   29.0904   55.8071 H   0  0  0  0  0  0
   -1.5010   29.7891   57.4459 H   0  0  0  0  0  0
   -2.9185   25.0988   57.2325 H   0  0  0  0  0  0
   -2.5513   23.6743   55.1852 H   0  0  0  0  0  0
  1  6  2  0  0  0
  1  2  1  0  0  0
  1 29  1  0  0  0
  2  3  2  0  0  0
  2 28  1  0  0  0
  3  4  1  0  0  0
  3 30  1  0  0  0
  4  5  2  0  0  0
  4 31  1  0  0  0
  5  7  1  0  0  0
  5  6  1  0  0  0
  6 32  1  0  0  0
  7  8  1  0  0  0
  8 13  2  0  0  0
  8  9  1  0  0  0
  9 10  2  0  0  0
  9 33  1  0  0  0
 10 11  1  0  0  0
 10 34  1  0  0  0
 11 14  1  0  0  0
 11 12  2  0  0  0
 12 13  1  0  0  0
 12 35  1  0  0  0
 13 36  1  0  0  0
 14 17  1  0  0  0
 14 16  2  0  0  0
 14 15  2  0  0  0
 17 18  1  0  0  0
 17 37  1  0  0  0
 17 38  1  0  0  0
 18 24  1  0  0  0
 18 23  1  0  0  0
 18 19  1  0  0  0
 19 20  1  0  0  0
 19 39  1  0  0  0
 19 40  1  0  0  0
 20 21  1  0  0  0
 20 41  1  0  0  0
 20 42  1  0  0  0
 21 22  1  0  0  0
 22 23  1  0  0  0
 22 43  1  0  0  0
 22 44  1  0  0  0
 23 45  1  0  0  0
 23 46  1  0  0  0
 24 26  2  0  0  0
 24 25  1  0  0  0
 25 27  1  0  0  0
 25 47  1  0  0  0
 27 48  1  0  0  0
M  END
> <s_m_source_file>
../830c_ligand.sdf

> <i_m_source_file_index>
1

> <s_epik_input>
Q2xjMVtjSF1bY0hdYyhbY0hdW2NIXTEpT2MyW2NIXVtjSF1jKFtjSF1bY0hdMilTKD1PKSg9TylbQ0gyXUMzKEMoPU8pW05IXVtPSF0pW0NIMl1bQ0gyXU9bQ0gyXVtDSDJdMw==

> <s_epik_cmdline>
J2VwaWtfYXBwJywgJy1pbWFlJywgJ2xpZ2FuZF9wcm8ubWFlJywgJy1vbWFlJywgJ2xpZ2FuZF9wcmVwLm1hZScsICctbXMnLCAnMScsICctcGgnLCAnNycsICctcGh0JywgJzAuNScsICctbnQn

> <r_lp_tautomer_probability>
1

> <r_epik_Ionization_Penalty>
  0.0108

> <r_epik_Ionization_Penalty_Charging>
  0.0000

> <r_epik_Ionization_Penalty_Neutral>
  0.0108

> <r_epik_State_Penalty>
  0.0082

> <r_epik_Charging_Adjusted_Penalty>
0.0082390141835536

> <i_epik_Tot_Q>
0

> <i_epik_Tot_abs_Q>
0

> <s_epik_Chemistry_Notes>
This compound has a N-S or N-O group and may undergo hydrolysis at high or low pH.

$$$$
