8a3h_ligand
                    3D
 Schrodinger Suite 2020-3.
 47 49  0  0  1  0            999 V2000
   60.7210   46.8410   36.9070 C   0  0  1  0  0  0
   61.0520   48.2560   36.5130 C   0  0  1  0  0  0
   60.4620   49.2150   37.5340 C   0  0  2  0  0  0
   58.9580   48.9890   37.6380 C   0  0  1  0  0  0
   58.7260   47.5060   38.0050 C   0  0  1  0  0  0
   57.2960   47.0880   38.0840 C   0  0  0  0  0  0
   62.4950   48.3600   36.4680 O   0  0  0  0  0  0
   60.6970   50.5800   37.1370 O   0  0  0  0  0  0
   58.4120   49.8290   38.6670 O   0  0  0  0  0  0
   59.3050   46.6870   36.9510 O   0  0  0  0  0  0
   56.6540   47.2650   36.8140 O   0  0  0  0  0  0
   61.6240   41.9130   36.4280 C   0  0  0  0  0  0
   60.5480   42.3120   35.4530 C   0  0  1  0  0  0
   60.6870   43.7830   35.0390 C   0  0  2  0  0  0
   61.1990   44.5900   36.2520 C   0  0  1  0  0  0
   62.6230   44.1860   36.5810 C   0  0  1  0  0  0
   63.2620   44.9630   37.7590 C   0  0  0  0  0  0
   60.4970   41.4310   34.3250 O   0  0  0  0  0  0
   59.4320   44.2030   34.6000 O   0  0  0  0  0  0
   61.1810   45.9910   35.8830 O   0  0  0  0  0  0
   62.5550   42.7540   36.9350 N   0  3  0  0  0  0
   62.4410   44.8280   38.9460 O   0  0  0  0  0  0
   61.7790   40.7160   36.9890 N   0  0  0  0  0  0
   62.8540   40.7640   37.8690 C   0  0  0  0  0  0
   63.3150   42.0400   37.8410 C   0  0  0  0  0  0
   61.1605   46.5520   37.8731 H   0  0  0  0  0  0
   60.6712   48.5128   35.5135 H   0  0  0  0  0  0
   60.9633   49.0821   38.5041 H   0  0  0  0  0  0
   58.4393   49.2869   36.7149 H   0  0  0  0  0  0
   59.1805   47.3254   38.9903 H   0  0  0  0  0  0
   57.2393   46.0273   38.3699 H   0  0  0  0  0  0
   56.7764   47.6989   38.8369 H   0  0  0  0  0  0
   63.0707   47.7280   35.7758 H   0  0  0  0  0  0
   61.7263   50.9451   37.0056 H   0  0  0  0  0  0
   58.4830   50.9232   38.5791 H   0  0  0  0  0  0
   55.5921   47.0046   36.6935 H   0  0  0  0  0  0
   59.5697   42.1515   35.9296 H   0  0  0  0  0  0
   61.3340   43.9620   34.1676 H   0  0  0  0  0  0
   60.5649   44.4552   37.1407 H   0  0  0  0  0  0
   63.2502   44.3706   35.6964 H   0  0  0  0  0  0
   64.2641   44.5585   37.9644 H   0  0  0  0  0  0
   63.3435   46.0277   37.4948 H   0  0  0  0  0  0
   58.9555   43.7075   33.7412 H   0  0  0  0  0  0
   62.7443   45.3177   39.8831 H   0  0  0  0  0  0
   63.2485   39.9400   38.4636 H   0  0  0  0  0  0
   64.1423   42.4336   38.4315 H   0  0  0  0  0  0
   60.3981   40.3462   34.4784 H   0  0  0  0  0  0
  1  2  1  0  0  0
  1 10  1  0  0  0
  1 20  1  0  0  0
  1 26  1  0  0  0
  2  3  1  0  0  0
  2  7  1  0  0  0
  2 27  1  0  0  0
  3  4  1  0  0  0
  3  8  1  0  0  0
  3 28  1  0  0  0
  4  5  1  0  0  0
  4  9  1  0  0  0
  4 29  1  0  0  0
  5  6  1  0  0  0
  5 10  1  0  0  0
  5 30  1  0  0  0
  6 11  1  0  0  0
  6 31  1  0  0  0
  6 32  1  0  0  0
  7 33  1  0  0  0
  8 34  1  0  0  0
  9 35  1  0  0  0
 11 36  1  0  0  0
 12 13  1  0  0  0
 12 21  2  0  0  0
 12 23  1  0  0  0
 13 14  1  0  0  0
 13 18  1  0  0  0
 13 37  1  0  0  0
 14 15  1  0  0  0
 14 19  1  0  0  0
 14 38  1  0  0  0
 15 16  1  0  0  0
 15 20  1  0  0  0
 15 39  1  0  0  0
 16 17  1  0  0  0
 16 21  1  0  0  0
 16 40  1  0  0  0
 17 22  1  0  0  0
 17 41  1  0  0  0
 17 42  1  0  0  0
 18 47  1  0  0  0
 19 43  1  0  0  0
 21 25  1  0  0  0
 22 44  1  0  0  0
 23 24  1  0  0  0
 24 25  2  0  0  0
 24 45  1  0  0  0
 25 46  1  0  0  0
M  CHG  1  21   1
M  END
> <s_m_source_file>
../8a3h_ligand.sdf

> <i_m_source_file_index>
1

> <s_epik_input>
W09IXVtDSDJdW0NAQEhdKE8xKVtDQEBIXShbT0hdKVtDQEhdKFtPSF0pW0NAQEhdKFtPSF0pW0NAQEhdMU9bQ0BASF0oW0NASF0oW09IXSlbQ0BIXTJbT0hdKVtDQEBIXShbQ0gyXVtPSF0pW24rXShjMjMpW2NIXVtjSF1bbkhdMw==

> <s_epik_cmdline>
J2VwaWtfYXBwJywgJy1pbWFlJywgJ2xpZ2FuZF9wcm8ubWFlJywgJy1vbWFlJywgJ2xpZ2FuZF9wcmVwLm1hZScsICctbXMnLCAnMScsICctcGgnLCAnNycsICctcGh0JywgJzAuNScsICctbnQn

> <r_epik_Ionization_Penalty>
  0.6851

> <r_epik_Ionization_Penalty_Charging>
  0.0000

> <r_epik_Ionization_Penalty_Neutral>
  0.6851

> <r_epik_State_Penalty>
  0.0001

> <r_epik_Charging_Adjusted_Penalty>
0.000105642952630354

> <i_epik_Tot_Q>
1

> <i_epik_Tot_abs_Q>
1

> <s_epik_Chemistry_Notes>
This compound contains an acetal/aminal-like group ( X-CH(R)-Y where X, Y are N, S, or O) that may be acid/base labile, releasing an aldehyde.

$$$$
