8abp_ligand
                    3D
 Schrodinger Suite 2020-3.
 24 24  0  0  1  0            999 V2000
   14.3120   56.8460   55.1160 C   0  0  1  0  0  0
   12.8730   57.1400   54.7490 C   0  0  1  0  0  0
   12.3730   56.2560   53.6260 C   0  0  2  0  0  0
   13.3340   56.3640   52.4010 C   0  0  2  0  0  0
   14.7350   56.0540   52.8460 C   0  0  1  0  0  0
   15.6850   56.3570   51.6840 C   0  0  0  0  0  0
   14.4010   55.5650   55.6850 O   0  0  0  0  0  0
   12.0230   56.9890   55.9270 O   0  0  0  0  0  0
   11.0680   56.6300   53.2440 O   0  0  0  0  0  0
   13.1840   57.6940   51.7930 O   0  0  0  0  0  0
   15.1350   56.8820   53.9220 O   0  0  0  0  0  0
   16.8900   55.7810   52.0740 O   0  0  0  0  0  0
   14.7059   57.5568   55.8574 H   0  0  0  0  0  0
   12.8029   58.1863   54.4168 H   0  0  0  0  0  0
   12.2553   55.2251   53.9913 H   0  0  0  0  0  0
   13.1109   55.6623   51.5838 H   0  0  0  0  0  0
   14.7715   55.0224   53.2261 H   0  0  0  0  0  0
   15.2905   55.9070   50.7610 H   0  0  0  0  0  0
   15.7696   57.4460   51.5539 H   0  0  0  0  0  0
   13.8450   55.3320   56.6051 H   0  0  0  0  0  0
   12.2424   57.5611   56.8405 H   0  0  0  0  0  0
   10.2531   56.6148   53.9827 H   0  0  0  0  0  0
   12.1995   58.0255   51.4312 H   0  0  0  0  0  0
   17.7692   55.8463   51.4162 H   0  0  0  0  0  0
  1  2  1  0  0  0
  1  7  1  0  0  0
  1 11  1  0  0  0
  1 13  1  0  0  0
  2  3  1  0  0  0
  2  8  1  0  0  0
  2 14  1  0  0  0
  3  4  1  0  0  0
  3  9  1  0  0  0
  3 15  1  0  0  0
  4  5  1  0  0  0
  4 10  1  0  0  0
  4 16  1  0  0  0
  5  6  1  0  0  0
  5 11  1  0  0  0
  5 17  1  0  0  0
  6 12  1  0  0  0
  6 18  1  0  0  0
  6 19  1  0  0  0
  7 20  1  0  0  0
  8 21  1  0  0  0
  9 22  1  0  0  0
 10 23  1  0  0  0
 12 24  1  0  0  0
M  END
> <s_m_source_file>
../8abp_ligand.sdf

> <i_m_source_file_index>
1

> <s_epik_input>
W09IXVtDQEBIXTFbQ0BIXShbT0hdKVtDQEBIXShbT0hdKVtDQEBIXShbT0hdKVtDQEhdKE8xKVtDSDJdW09IXQ==

> <s_epik_cmdline>
J2VwaWtfYXBwJywgJy1pbWFlJywgJ2xpZ2FuZF9wcm8ubWFlJywgJy1vbWFlJywgJ2xpZ2FuZF9wcmVwLm1hZScsICctbXMnLCAnMScsICctcGgnLCAnNycsICctcGh0JywgJzAuNScsICctbnQn

> <r_lp_tautomer_probability>
1

> <r_epik_Ionization_Penalty>
  0.0000

> <r_epik_Ionization_Penalty_Charging>
  0.0000

> <r_epik_Ionization_Penalty_Neutral>
  0.0000

> <r_epik_State_Penalty>
 -0.0000

> <r_epik_Charging_Adjusted_Penalty>
0

> <i_epik_Tot_Q>
0

> <i_epik_Tot_abs_Q>
0

> <s_epik_Chemistry_Notes>
This compound contains an acetal/aminal-like group ( X-CH(R)-Y where X, Y are N, S, or O) that may be acid/base labile, releasing an aldehyde.

$$$$
