8cpa_ligand
                    3D
 Schrodinger Suite 2020-3.
 55 56  0  0  1  0            999 V2000
   46.7100   17.1130   40.5290 C   0  0  0  0  0  0
   47.9000   18.4490   42.0590 C   0  0  0  0  0  0
   48.5500   19.7190   42.0950 C   0  0  0  0  0  0
   48.0700   20.7140   42.8680 C   0  0  0  0  0  0
   49.6350   19.9250   41.3260 C   0  0  0  0  0  0
   48.6810   21.9170   42.8770 C   0  0  0  0  0  0
   50.2430   21.1270   41.3340 C   0  0  0  0  0  0
   49.7670   22.1270   42.1030 C   0  0  0  0  0  0
   44.9570   19.1400   38.9360 C   0  0  0  0  0  0
   45.8600   18.1140   38.4590 C   0  0  2  0  0  0
   45.3150   17.6400   37.1060 C   0  0  0  0  0  0
   44.6690   21.5380   39.2050 C   0  0  0  0  0  0
   44.6070   22.3510   34.8640 C   0  0  0  0  0  0
   44.8320   23.5220   35.6680 C   0  0  2  0  0  0
   45.9910   24.1600   34.9060 C   0  0  0  0  0  0
   45.7090   24.8210   33.6600 C   0  0  0  0  0  0
   45.1190   26.0360   33.6430 C   0  0  0  0  0  0
   46.0030   24.2090   32.4940 C   0  0  0  0  0  0
   44.8530   26.6560   32.4720 C   0  0  0  0  0  0
   45.7290   24.8190   31.3240 C   0  0  0  0  0  0
   45.1500   26.0400   31.3020 C   0  0  0  0  0  0
   46.7610   16.1530   41.2350 O   0  0  0  0  0  0
   47.2090   18.2740   40.8520 O   0  0  0  0  0  0
   43.8560   18.9480   39.3440 O   0  0  0  0  0  0
   42.8040   21.8510   37.3320 O   0  0  0  0  0  0
   43.8180   23.8440   38.7850 O   0  5  0  0  0  0
   45.2180   22.9160   36.9320 O   0  0  0  0  0  0
   45.2630   21.3640   34.9840 O   0  0  0  0  0  0
   43.6360   22.4110   33.9860 O   0  5  0  0  0  0
   46.1190   17.0230   39.3400 N   0  0  0  0  0  0
   45.4030   20.4330   38.8030 N   0  0  0  0  0  0
   44.0300   22.5200   38.0000 P   0  0  1  0  0  0
   48.6502   17.6503   42.1556 H   0  0  0  0  0  0
   47.1825   18.3806   42.8900 H   0  0  0  0  0  0
   47.1879   20.5465   43.4860 H   0  0  0  0  0  0
   50.0207   19.1215   40.6985 H   0  0  0  0  0  0
   48.2981   22.7186   43.5086 H   0  0  0  0  0  0
   51.1250   21.2922   40.7152 H   0  0  0  0  0  0
   50.2569   23.1007   42.0998 H   0  0  0  0  0  0
   46.8619   18.5682   38.4548 H   0  0  0  0  0  0
   45.1299   18.5108   36.4599 H   0  0  0  0  0  0
   44.3739   17.0921   37.2614 H   0  0  0  0  0  0
   46.0503   16.9772   36.6264 H   0  0  0  0  0  0
   45.3504   22.1278   39.8357 H   0  0  0  0  0  0
   43.8521   21.1372   39.8230 H   0  0  0  0  0  0
   44.0114   24.2301   35.8557 H   0  0  0  0  0  0
   46.4623   24.9308   35.5335 H   0  0  0  0  0  0
   46.7332   23.3882   34.6539 H   0  0  0  0  0  0
   44.8549   26.5210   34.5827 H   0  0  0  0  0  0
   46.4624   23.2206   32.4984 H   0  0  0  0  0  0
   44.4012   27.6480   32.4686 H   0  0  0  0  0  0
   45.9769   24.3226   30.3858 H   0  0  0  0  0  0
   44.9241   26.5247   30.3522 H   0  0  0  0  0  0
   45.8226   16.0030   39.0542 H   0  0  0  0  0  0
   46.3968   20.5676   38.3511 H   0  0  0  0  0  0
  1 22  2  0  0  0
  1 23  1  0  0  0
  1 30  1  0  0  0
  2  3  1  0  0  0
  2 23  1  0  0  0
  2 33  1  0  0  0
  2 34  1  0  0  0
  3  4  2  0  0  0
  3  5  1  0  0  0
  4  6  1  0  0  0
  4 35  1  0  0  0
  5  7  2  0  0  0
  5 36  1  0  0  0
  6  8  2  0  0  0
  6 37  1  0  0  0
  7  8  1  0  0  0
  7 38  1  0  0  0
  8 39  1  0  0  0
  9 10  1  0  0  0
  9 31  1  0  0  0
  9 24  2  0  0  0
 10 11  1  0  0  0
 10 30  1  0  0  0
 10 40  1  0  0  0
 11 41  1  0  0  0
 11 42  1  0  0  0
 11 43  1  0  0  0
 12 32  1  0  0  0
 12 31  1  0  0  0
 12 44  1  0  0  0
 12 45  1  0  0  0
 13 14  1  0  0  0
 13 29  1  0  0  0
 13 28  2  0  0  0
 14 15  1  0  0  0
 14 27  1  0  0  0
 14 46  1  0  0  0
 15 16  1  0  0  0
 15 47  1  0  0  0
 15 48  1  0  0  0
 16 17  2  0  0  0
 16 18  1  0  0  0
 17 19  1  0  0  0
 17 49  1  0  0  0
 18 20  2  0  0  0
 18 50  1  0  0  0
 19 21  2  0  0  0
 19 51  1  0  0  0
 20 21  1  0  0  0
 20 52  1  0  0  0
 21 53  1  0  0  0
 25 32  2  0  0  0
 26 32  1  0  0  0
 27 32  1  0  0  0
 30 54  1  0  0  0
 31 55  1  0  0  0
M  CHG  2  26  -1  29  -1
M  END
> <s_m_source_file>
../8cpa_ligand.sdf

> <i_m_source_file_index>
1

> <s_epik_input>
W2NIXTFbY0hdW2NIXVtjSF1bY0hdYzFbQ0gyXU9DKD1PKVtOSF1bQ0BASF0oW0NIM10pQyg9TylbTkhdW0NIMl1bUEBAXSg9TykoW09IXSlPW0NASF0oQyg9TylbT0hdKVtDSDJdYzJbY0hdW2NIXVtjSF1bY0hdW2NIXTI=

> <s_epik_cmdline>
J2VwaWtfYXBwJywgJy1pbWFlJywgJ2xpZ2FuZF9wcm8ubWFlJywgJy1vbWFlJywgJ2xpZ2FuZF9wcmVwLm1hZScsICctbXMnLCAnMScsICctcGgnLCAnNycsICctcGh0JywgJzAuNScsICctbnQn

> <r_lp_tautomer_probability>
1

> <r_epik_Ionization_Penalty>
  0.0002

> <r_epik_Ionization_Penalty_Charging>
  0.0002

> <r_epik_Ionization_Penalty_Neutral>
  0.0000

> <r_epik_State_Penalty>
 -0.0000

> <r_epik_Charging_Adjusted_Penalty>
0.000213538099214168

> <i_epik_Tot_Q>
-2

> <i_epik_Tot_abs_Q>
2

> <s_epik_Chemistry_Notes>
This compound has an ester and may undergo hydrolysis at high or low pH.

$$$$
