8gpb_ligand
                    3D
 Schrodinger Suite 2020-3.
 35 37  0  0  1  0            999 V2000
   31.1120    1.9730   51.2100 P   0  0  0  0  0  0
   32.3750    1.2580   51.2420 O   0  0  0  0  0  0
   30.6820    2.4470   49.8470 O   0  5  0  0  0  0
   31.1330    3.1420   52.1560 O   0  5  0  0  0  0
   30.0490    0.9560   51.8310 O   0  0  0  0  0  0
   29.5220   -0.1750   51.0700 C   0  0  0  0  0  0
   28.2040   -0.8740   51.6510 C   0  0  1  0  0  0
   28.5290   -2.3020   51.6600 O   0  0  0  0  0  0
   27.7830   -0.6400   53.0620 C   0  0  1  0  0  0
   26.8320    0.4460   53.1210 O   0  0  0  0  0  0
   27.0570   -1.9970   53.3820 C   0  0  1  0  0  0
   25.8840   -2.2770   52.6140 O   0  0  0  0  0  0
   28.0570   -2.9710   52.8390 C   0  0  2  0  0  0
   29.2200   -3.1970   53.7270 N   0  0  0  0  0  0
   30.3640   -2.4050   53.8760 C   0  0  0  0  0  0
   31.2240   -2.7410   54.7850 N   0  0  0  0  0  0
   30.5860   -3.8780   55.2940 C   0  0  0  0  0  0
   30.9850   -4.7110   56.3420 C   0  0  0  0  0  0
   32.1450   -4.3900   56.9790 N   0  0  0  0  0  0
   30.1560   -5.7330   56.6900 N   0  0  0  0  0  0
   29.0360   -5.9130   55.9610 C   0  0  0  0  0  0
   28.5210   -5.1670   54.9700 N   0  0  0  0  0  0
   29.3570   -4.1400   54.6990 C   0  0  0  0  0  0
   29.2637    0.1557   50.0532 H   0  0  0  0  0  0
   30.2834   -0.9670   51.0156 H   0  0  0  0  0  0
   27.3439   -0.5256   51.0604 H   0  0  0  0  0  0
   28.5946   -0.3137   53.7289 H   0  0  0  0  0  0
   27.1613    1.4768   52.9236 H   0  0  0  0  0  0
   26.7044   -2.0627   54.4219 H   0  0  0  0  0  0
   24.9610   -1.7056   52.7916 H   0  0  0  0  0  0
   27.6130   -3.9619   52.6628 H   0  0  0  0  0  0
   30.5269   -1.5308   53.2457 H   0  0  0  0  0  0
   32.7513   -3.5435   56.6241 H   0  0  0  0  0  0
   32.4757   -4.9772   57.8484 H   0  0  0  0  0  0
   28.4590   -6.8020   56.2155 H   0  0  0  0  0  0
  1  2  2  0  0  0
  1  3  1  0  0  0
  1  4  1  0  0  0
  1  5  1  0  0  0
  5  6  1  0  0  0
  6  7  1  0  0  0
  6 24  1  0  0  0
  6 25  1  0  0  0
  7  8  1  0  0  0
  7  9  1  0  0  0
  7 26  1  0  0  0
  8 13  1  0  0  0
  9 10  1  0  0  0
  9 11  1  0  0  0
  9 27  1  0  0  0
 10 28  1  0  0  0
 11 12  1  0  0  0
 11 13  1  0  0  0
 11 29  1  0  0  0
 12 30  1  0  0  0
 13 14  1  0  0  0
 13 31  1  0  0  0
 14 15  1  0  0  0
 14 23  1  0  0  0
 15 16  2  0  0  0
 15 32  1  0  0  0
 16 17  1  0  0  0
 17 18  2  0  0  0
 17 23  1  0  0  0
 18 19  1  0  0  0
 18 20  1  0  0  0
 19 33  1  0  0  0
 19 34  1  0  0  0
 20 21  2  0  0  0
 21 22  1  0  0  0
 21 35  1  0  0  0
 22 23  2  0  0  0
M  CHG  2   3  -1   4  -1
M  END
> <s_m_source_file>
../8gpb_ligand.sdf

> <i_m_source_file_index>
1

> <s_epik_input>
Tz1QKFtPSF0pKFtPSF0pT1tDSDJdW0NASF0xT1tDQEhdKFtDQEhdKFtPSF0pW0NAQEhdMVtPSF0pbihbY0hdbjIpYyhjMjMpbltjSF1uYzNbTkgyXQ==

> <s_epik_cmdline>
J2VwaWtfYXBwJywgJy1pbWFlJywgJ2xpZ2FuZF9wcm8ubWFlJywgJy1vbWFlJywgJ2xpZ2FuZF9wcmVwLm1hZScsICctbXMnLCAnMScsICctcGgnLCAnNycsICctcGh0JywgJzAuNScsICctbnQn

> <r_lp_tautomer_probability>
0.999997216410988

> <r_epik_Ionization_Penalty>
  0.1025

> <r_epik_Ionization_Penalty_Charging>
  0.1020

> <r_epik_Ionization_Penalty_Neutral>
  0.0004

> <r_epik_State_Penalty>
  0.0920

> <r_epik_Charging_Adjusted_Penalty>
0.194024004396068

> <i_epik_Tot_Q>
-2

> <i_epik_Tot_abs_Q>
2

> <s_epik_Chemistry_Notes>
This compound contains an acetal/aminal-like group ( X-CH(R)-Y where X, Y are N, S, or O) that may be acid/base labile, releasing an aldehyde.

$$$$
