8hvp_ligand
                    3D
 Schrodinger Suite 2020-3.
134133  0  0  1  0            999 V2000
    1.0020    5.2560    2.4530 N   0  3  0  0  0  0
    1.9820    6.3160    2.8350 C   0  0  2  0  0  0
    1.9240    6.5840    4.3480 C   0  0  0  0  0  0
    2.5670    7.4940    4.9040 O   0  0  0  0  0  0
    1.9220    7.4940    1.8420 C   0  0  0  0  0  0
    0.8530    8.5550    2.1100 C   0  0  0  0  0  0
    3.2670    8.1640    1.5910 C   0  0  0  0  0  0
    1.2300    5.7170    5.0550 N   0  0  0  0  0  0
    1.1380    5.7310    6.5190 C   0  0  2  0  0  0
    1.9960    4.5750    7.0750 C   0  0  0  0  0  0
    1.7090    3.4520    6.5870 O   0  0  0  0  0  0
   -0.3420    5.5850    6.8640 C   0  0  0  0  0  0
   -0.4610    4.6260    7.9200 O   0  0  0  0  0  0
    2.9620    4.7350    7.9850 N   0  0  0  0  0  0
    3.7350    3.6010    8.5290 C   0  0  2  0  0  0
    3.3780    3.2620    9.9960 C   0  0  0  0  0  0
    3.0680    4.1750   10.7400 O   0  0  0  0  0  0
    5.2580    3.7560    8.4280 C   0  0  0  0  0  0
    5.7550    4.8040    9.3600 C   0  0  0  0  0  0
    7.1520    4.7760    9.9120 C   0  0  0  0  0  0
    7.5000    5.7540   10.6080 O   0  0  0  0  0  0
    7.9060    3.7010    9.6510 N   0  0  0  0  0  0
    3.4640    1.9910   10.3560 N   0  0  0  0  0  0
    3.1540    1.3520   11.6200 C   0  0  2  0  0  0
    4.0790    0.2790   12.1810 C   0  0  0  0  0  0
    3.9390   -0.9260   11.9130 O   0  0  0  0  0  0
    1.7830    0.6110   11.5390 C   0  0  0  0  0  0
    0.7950    1.7170   11.2240 C   0  0  0  0  0  0
    0.3930    1.8520   10.0760 O   0  0  0  0  0  0
    0.5960    2.4920   12.3000 N   0  0  0  0  0  0
    6.9900    1.4400   11.3230 C   0  0  0  0  0  0
    9.0020    1.8760   12.5150 C   0  0  0  0  0  0
    7.8610    0.8620   12.4180 C   0  0  0  0  0  0
    7.1630    0.7720   13.7870 C   0  0  0  0  0  0
    5.9040   -0.1010   13.8140 C   0  0  1  0  0  0
    5.4650   -0.6750   15.1370 C   0  0  1  0  0  0
    4.8810    0.7220   13.1260 N   0  0  0  0  0  0
    5.3690    0.2520   16.1900 O   0  0  0  0  0  0
    4.3100   -1.6420   15.1090 C   0  0  0  0  0  0
    4.5670   -2.9080   15.9400 C   0  0  1  0  0  0
    3.2690   -3.7610   15.8890 C   0  0  0  0  0  0
    3.4780   -5.2770   15.9020 C   0  0  0  0  0  0
    2.3420   -3.4570   17.0470 C   0  0  0  0  0  0
    5.8300   -3.6840   15.5510 C   0  0  0  0  0  0
    6.2810   -3.7280   14.3740 O   0  0  0  0  0  0
    6.4270   -4.3430   16.5120 N   0  0  0  0  0  0
    7.5510   -5.2490   16.2610 C   0  0  2  0  0  0
    7.2490   -6.4450   17.1810 C   0  0  0  0  0  0
    7.0220   -6.1860   18.3730 O   0  0  0  0  0  0
    9.0100   -4.7480   16.3510 C   0  0  2  0  0  0
   10.0030   -5.6580   15.5650 C   0  0  0  0  0  0
    9.6280   -4.8870   17.7930 C   0  0  0  0  0  0
    9.3410   -6.7070   14.6340 C   0  0  0  0  0  0
    7.1640   -7.6510   16.6710 N   0  0  0  0  0  0
    6.9320   -8.7560   17.6470 C   0  0  2  0  0  0
    8.0450   -9.7880   17.3970 C   0  0  0  0  0  0
    8.5500   -9.8630   16.2470 O   0  5  0  0  0  0
    5.4770   -9.1940   17.7100 C   0  0  0  0  0  0
    4.5750   -8.2120   18.4850 C   0  0  0  0  0  0
    4.8010   -9.5690   16.3970 C   0  0  0  0  0  0
    8.2990  -10.5400   18.3650 O   0  0  0  0  0  0
    1.0580    5.0784    1.3689 H   0  0  0  0  0  0
   -0.0140    5.5830    2.7190 H   0  0  0  0  0  0
    1.2402    4.3259    2.9898 H   0  0  0  0  0  0
    3.0125    5.9537    2.7055 H   0  0  0  0  0  0
    1.6139    6.9869    0.9158 H   0  0  0  0  0  0
   -0.1144    8.0634    2.2901 H   0  0  0  0  0  0
    0.7696    9.2200    1.2377 H   0  0  0  0  0  0
    1.1352    9.1444    2.9948 H   0  0  0  0  0  0
    4.0297    7.3948    1.3993 H   0  0  0  0  0  0
    3.5540    8.7527    2.4748 H   0  0  0  0  0  0
    3.1884    8.8282    0.7177 H   0  0  0  0  0  0
    0.6977    4.9466    4.4778 H   0  0  0  0  0  0
    1.5200    6.6794    6.9247 H   0  0  0  0  0  0
   -0.7404    6.5575    7.1890 H   0  0  0  0  0  0
   -0.8932    5.2411    5.9764 H   0  0  0  0  0  0
   -1.4526    4.3708    8.3220 H   0  0  0  0  0  0
    3.1725    5.7589    8.3276 H   0  0  0  0  0  0
    3.4066    2.8071    7.8421 H   0  0  0  0  0  0
    5.7414    2.8015    8.6833 H   0  0  0  0  0  0
    5.5302    4.0418    7.4012 H   0  0  0  0  0  0
    5.7034    5.7865    8.8681 H   0  0  0  0  0  0
    5.1315    4.8145   10.2662 H   0  0  0  0  0  0
    7.5080    2.8890    9.0247 H   0  0  0  0  0  0
    8.9235    3.6298   10.0628 H   0  0  0  0  0  0
    3.8352    1.3904    9.5125 H   0  0  0  0  0  0
    3.2594    2.2628   12.2277 H   0  0  0  0  0  0
    1.8238   -0.1500   10.7458 H   0  0  0  0  0  0
    1.5714    0.1249   12.5028 H   0  0  0  0  0  0
    1.0396    2.2142   13.2675 H   0  0  0  0  0  0
   -0.0108    3.4056   12.2152 H   0  0  0  0  0  0
    7.5574    1.4710   10.3812 H   0  0  0  0  0  0
    6.6818    2.4592   11.5992 H   0  0  0  0  0  0
    6.0979    0.8097   11.1930 H   0  0  0  0  0  0
    9.5101    1.9504   11.5422 H   0  0  0  0  0  0
    9.7208    1.5471   13.2800 H   0  0  0  0  0  0
    8.5956    2.8598   12.7926 H   0  0  0  0  0  0
    8.1543   -0.1672   12.1638 H   0  0  0  0  0  0
    7.8581    0.3464   14.5257 H   0  0  0  0  0  0
    6.8564    1.7781   14.1091 H   0  0  0  0  0  0
    6.0768   -1.0561   13.2964 H   0  0  0  0  0  0
    6.3437   -1.2529   15.4595 H   0  0  0  0  0  0
    4.7536    1.7805   13.3967 H   0  0  0  0  0  0
    6.1497    1.0153   16.3237 H   0  0  0  0  0  0
    3.4122   -1.1527   15.5146 H   0  0  0  0  0  0
    4.1196   -1.9559   14.0721 H   0  0  0  0  0  0
    4.8043   -2.6130   16.9728 H   0  0  0  0  0  0
    2.8131   -3.4788   14.9285 H   0  0  0  0  0  0
    4.1480   -5.5618   15.0774 H   0  0  0  0  0  0
    2.5086   -5.7818   15.7779 H   0  0  0  0  0  0
    3.9276   -5.5769   16.8601 H   0  0  0  0  0  0
    2.1525   -2.3743   17.0905 H   0  0  0  0  0  0
    2.8096   -3.7855   17.9869 H   0  0  0  0  0  0
    1.3905   -3.9904   16.9048 H   0  0  0  0  0  0
    6.0563   -4.1974   17.5374 H   0  0  0  0  0  0
    7.5226   -5.4305   15.1764 H   0  0  0  0  0  0
    8.9091   -3.7191   15.9753 H   0  0  0  0  0  0
   10.6456   -5.0338   14.9267 H   0  0  0  0  0  0
   10.6270   -6.2195   16.2759 H   0  0  0  0  0  0
    9.0369   -4.2914   18.5042 H   0  0  0  0  0  0
   10.6660   -4.5229   17.7837 H   0  0  0  0  0  0
    9.6128   -5.9437   18.0981 H   0  0  0  0  0  0
   10.1223   -7.2939   14.1290 H   0  0  0  0  0  0
    8.7249   -6.1927   13.8818 H   0  0  0  0  0  0
    8.7063   -7.3784   15.2310 H   0  0  0  0  0  0
    7.2527   -7.8748   15.5977 H   0  0  0  0  0  0
    7.0309   -8.4279   18.6923 H   0  0  0  0  0  0
    5.5887  -10.1426   18.2556 H   0  0  0  0  0  0
    5.0603   -7.9392   19.4337 H   0  0  0  0  0  0
    3.6063   -8.6899   18.6928 H   0  0  0  0  0  0
    4.4151   -7.3065   17.8812 H   0  0  0  0  0  0
    5.4419  -10.2695   15.8416 H   0  0  0  0  0  0
    4.6410   -8.6624   15.7950 H   0  0  0  0  0  0
    3.8321  -10.0458   16.6065 H   0  0  0  0  0  0
  1  2  1  0  0  0
  1 62  1  0  0  0
  1 63  1  0  0  0
  1 64  1  0  0  0
  2  5  1  0  0  0
  2  3  1  0  0  0
  2 65  1  0  0  0
  3  4  2  0  0  0
  3  8  1  0  0  0
  5  7  1  0  0  0
  5  6  1  0  0  0
  5 66  1  0  0  0
  6 67  1  0  0  0
  6 68  1  0  0  0
  6 69  1  0  0  0
  7 70  1  0  0  0
  7 71  1  0  0  0
  7 72  1  0  0  0
  8  9  1  0  0  0
  8 73  1  0  0  0
  9 12  1  0  0  0
  9 10  1  0  0  0
  9 74  1  0  0  0
 10 11  2  0  0  0
 10 14  1  0  0  0
 12 13  1  0  0  0
 12 75  1  0  0  0
 12 76  1  0  0  0
 13 77  1  0  0  0
 14 15  1  0  0  0
 14 78  1  0  0  0
 15 18  1  0  0  0
 15 16  1  0  0  0
 15 79  1  0  0  0
 16 17  2  0  0  0
 16 23  1  0  0  0
 18 19  1  0  0  0
 18 80  1  0  0  0
 18 81  1  0  0  0
 19 20  1  0  0  0
 19 82  1  0  0  0
 19 83  1  0  0  0
 20 22  1  0  0  0
 20 21  2  0  0  0
 22 84  1  0  0  0
 22 85  1  0  0  0
 23 24  1  0  0  0
 23 86  1  0  0  0
 24 27  1  0  0  0
 24 25  1  0  0  0
 24 87  1  0  0  0
 25 26  2  0  0  0
 25 37  1  0  0  0
 27 28  1  0  0  0
 27 88  1  0  0  0
 27 89  1  0  0  0
 28 30  1  0  0  0
 28 29  2  0  0  0
 30 90  1  0  0  0
 30 91  1  0  0  0
 31 33  1  0  0  0
 31 92  1  0  0  0
 31 93  1  0  0  0
 31 94  1  0  0  0
 32 33  1  0  0  0
 32 95  1  0  0  0
 32 96  1  0  0  0
 32 97  1  0  0  0
 33 34  1  0  0  0
 33 98  1  0  0  0
 34 35  1  0  0  0
 34 99  1  0  0  0
 34100  1  0  0  0
 35 36  1  0  0  0
 35 37  1  0  0  0
 35101  1  0  0  0
 36 38  1  0  0  0
 36 39  1  0  0  0
 36102  1  0  0  0
 37103  1  0  0  0
 38104  1  0  0  0
 39 40  1  0  0  0
 39105  1  0  0  0
 39106  1  0  0  0
 40 41  1  0  0  0
 40 44  1  0  0  0
 40107  1  0  0  0
 41 42  1  0  0  0
 41 43  1  0  0  0
 41108  1  0  0  0
 42109  1  0  0  0
 42110  1  0  0  0
 42111  1  0  0  0
 43112  1  0  0  0
 43113  1  0  0  0
 43114  1  0  0  0
 44 45  2  0  0  0
 44 46  1  0  0  0
 46 47  1  0  0  0
 46115  1  0  0  0
 47 50  1  0  0  0
 47 48  1  0  0  0
 47116  1  0  0  0
 48 49  2  0  0  0
 48 54  1  0  0  0
 50 52  1  0  0  0
 50 51  1  0  0  0
 50117  1  0  0  0
 51 53  1  0  0  0
 51118  1  0  0  0
 51119  1  0  0  0
 52120  1  0  0  0
 52121  1  0  0  0
 52122  1  0  0  0
 53123  1  0  0  0
 53124  1  0  0  0
 53125  1  0  0  0
 54 55  1  0  0  0
 54126  1  0  0  0
 55 58  1  0  0  0
 55 56  1  0  0  0
 55127  1  0  0  0
 56 57  1  0  0  0
 56 61  2  0  0  0
 58 60  1  0  0  0
 58 59  1  0  0  0
 58128  1  0  0  0
 59129  1  0  0  0
 59130  1  0  0  0
 59131  1  0  0  0
 60132  1  0  0  0
 60133  1  0  0  0
 60134  1  0  0  0
M  CHG  2   1   1  57  -1
M  END
> <s_m_source_file>
../8hvp_ligand.sdf

> <i_m_source_file_index>
1

> <s_epik_input>
W0NIM11bQ0hdKFtDSDNdKVtDQEhdKFtOSDMrXSlDKD1PKVtOSF1bQ0BASF0oW0NIMl1bT0hdKUMoPU8pW05IXVtDQEBIXShbQ0gyXVtDSDJdQyg9TylbTkgyXSlDKD1PKVtOSF1bQ0BASF0oW0NIMl1DKD1PKVtOSDJdKUMoPU8pW05IXVtDQEBIXShbQ0gyXVtDSF0oW0NIM10pW0NIM10pW0NAQEhdKFtPSF0pW0NIMl1bQ0BASF0oW0NIXShbQ0gzXSlbQ0gzXSlDKD1PKVtOSF1bQ0BASF0oW0NAQEhdKFtDSDNdKVtDSDJdW0NIM10pQyg9TylbTkhdW0NASF0oQyg9TylbT0hdKVtDSF0oW0NIM10pW0NIM10=

> <s_epik_cmdline>
J2VwaWtfYXBwJywgJy1pbWFlJywgJ2xpZ2FuZF9wcm8ubWFlJywgJy1vbWFlJywgJ2xpZ2FuZF9wcmVwLm1hZScsICctbXMnLCAnMScsICctcGgnLCAnNycsICctcGh0JywgJzAuNScsICctbnQn

> <r_epik_Ionization_Penalty>
  0.0908

> <r_epik_Ionization_Penalty_Charging>
  0.0908

> <r_epik_Ionization_Penalty_Neutral>
  0.0000

> <r_epik_State_Penalty>
  0.0810

> <r_epik_Charging_Adjusted_Penalty>
0.171835574151062

> <i_epik_Tot_Q>
0

> <i_epik_Tot_abs_Q>
2

$$$$
