8lpr_ligand
                    3D
 Schrodinger Suite 2020-3.
 59 60  0  0  1  0            999 V2000
   13.6250   41.9040   18.8670 N   0  3  0  0  0  0
   14.1880   40.5770   18.5250 C   0  0  2  0  0  0
   13.2840   39.3680   18.7490 C   0  0  0  0  0  0
   12.6410   39.3080   19.8140 O   0  0  0  0  0  0
   15.3180   40.2620   19.5300 C   0  0  0  0  0  0
   13.3250   38.4620   17.7960 N   0  0  0  0  0  0
   12.5500   37.2080   17.9690 C   0  0  2  0  0  0
   13.5320   36.0850   17.6020 C   0  0  0  0  0  0
   14.3880   36.3650   16.7350 O   0  0  0  0  0  0
   11.4140   37.1210   16.9420 C   0  0  0  0  0  0
   13.2570   34.9240   18.1510 N   0  0  0  0  0  0
   14.0380   33.7180   17.7940 C   0  0  2  0  0  0
   13.7470   33.3160   16.3340 C   0  0  0  0  0  0
   12.6110   33.4760   15.8150 O   0  0  0  0  0  0
   13.5420   32.6480   18.7990 C   0  0  0  0  0  0
   12.7040   33.3740   19.8020 C   0  0  0  0  0  0
   12.1330   34.6260   19.0900 C   0  0  0  0  0  0
   14.7590   32.7570   15.6540 N   0  0  0  0  0  0
   14.6920   32.2700   14.2990 C   0  0  1  0  0  0
   15.6420   32.9590   13.3050 C   0  0  0  0  0  0
   15.4950   34.4080   13.0090 C   0  0  0  0  0  0
   16.4250   35.0230   12.1730 C   0  0  0  0  0  0
   14.4850   35.1820   13.5960 C   0  0  0  0  0  0
   16.3360   36.3910   11.9020 C   0  0  0  0  0  0
   14.3580   36.5530   13.3060 C   0  0  0  0  0  0
   15.2970   37.1470   12.4420 C   0  0  0  0  0  0
   14.8350   30.7120   14.1610 B   0  0  0  0  0  0
   14.8530   30.1950   12.7560 O   0  0  0  0  0  0
   14.0410   29.9520   15.1450 O   0  0  0  0  0  0
   12.8163   42.1515   18.1636 H   0  0  0  0  0  0
   14.4154   42.6660   18.7998 H   0  0  0  0  0  0
   13.2253   41.8797   19.8915 H   0  0  0  0  0  0
   14.4170   40.7109   17.4575 H   0  0  0  0  0  0
   16.0744   41.0598   19.4931 H   0  0  0  0  0  0
   15.7851   39.3014   19.2673 H   0  0  0  0  0  0
   14.8991   40.2006   20.5453 H   0  0  0  0  0  0
   13.9190   38.6200   16.8838 H   0  0  0  0  0  0
   12.1449   37.1793   18.9913 H   0  0  0  0  0  0
   10.6707   37.9046   17.1502 H   0  0  0  0  0  0
   10.9342   36.1334   17.0088 H   0  0  0  0  0  0
   11.8225   37.2626   15.9305 H   0  0  0  0  0  0
   15.1205   33.9016   17.8617 H   0  0  0  0  0  0
   12.9512   31.8893   18.2649 H   0  0  0  0  0  0
   14.4069   32.1676   19.2797 H   0  0  0  0  0  0
   11.8916   32.7167   20.1455 H   0  0  0  0  0  0
   13.3282   33.6644   20.6599 H   0  0  0  0  0  0
   11.9743   35.4864   19.7567 H   0  0  0  0  0  0
   11.2155   34.4340   18.5144 H   0  0  0  0  0  0
   15.7004   32.6850   16.2184 H   0  0  0  0  0  0
   13.6642   32.6085   14.1014 H   0  0  0  0  0  0
   16.6776   32.8679   13.6644 H   0  0  0  0  0  0
   15.5524   32.4790   12.3193 H   0  0  0  0  0  0
   17.2265   34.4335   11.7279 H   0  0  0  0  0  0
   13.7859   34.7140   14.2890 H   0  0  0  0  0  0
   17.0816   36.8684   11.2662 H   0  0  0  0  0  0
   13.5504   37.1419   13.7408 H   0  0  0  0  0  0
   15.2111   38.2048   12.1936 H   0  0  0  0  0  0
   15.4294   30.7239   11.9827 H   0  0  0  0  0  0
   13.9937   30.2884   16.1912 H   0  0  0  0  0  0
  1  2  1  0  0  0
  1 30  1  0  0  0
  1 31  1  0  0  0
  1 32  1  0  0  0
  2  3  1  0  0  0
  2  5  1  0  0  0
  2 33  1  0  0  0
  3  4  2  0  0  0
  3  6  1  0  0  0
  5 34  1  0  0  0
  5 35  1  0  0  0
  5 36  1  0  0  0
  6  7  1  0  0  0
  6 37  1  0  0  0
  7  8  1  0  0  0
  7 10  1  0  0  0
  7 38  1  0  0  0
  8  9  2  0  0  0
  8 11  1  0  0  0
 10 39  1  0  0  0
 10 40  1  0  0  0
 10 41  1  0  0  0
 11 12  1  0  0  0
 11 17  1  0  0  0
 12 13  1  0  0  0
 12 15  1  0  0  0
 12 42  1  0  0  0
 13 14  2  0  0  0
 13 18  1  0  0  0
 15 16  1  0  0  0
 15 43  1  0  0  0
 15 44  1  0  0  0
 16 17  1  0  0  0
 16 45  1  0  0  0
 16 46  1  0  0  0
 17 47  1  0  0  0
 17 48  1  0  0  0
 18 19  1  0  0  0
 18 49  1  0  0  0
 19 20  1  0  0  0
 19 27  1  0  0  0
 19 50  1  0  0  0
 20 21  1  0  0  0
 20 51  1  0  0  0
 20 52  1  0  0  0
 21 22  2  0  0  0
 21 23  1  0  0  0
 22 24  1  0  0  0
 22 53  1  0  0  0
 23 25  2  0  0  0
 23 54  1  0  0  0
 24 26  2  0  0  0
 24 55  1  0  0  0
 25 26  1  0  0  0
 25 56  1  0  0  0
 26 57  1  0  0  0
 27 28  1  0  0  0
 27 29  1  0  0  0
 28 58  1  0  0  0
 29 59  1  0  0  0
M  CHG  1   1   1
M  END
> <s_m_source_file>
../8lpr_ligand.sdf

> <i_m_source_file_index>
1

> <s_epik_input>
W05IMytdW0NAQEhdKFtDSDNdKUMoPU8pW05IXVtDQEBIXShbQ0gzXSlDKD1PKU4xW0NAQEhdKFtDSDJdW0NIMl1bQ0gyXTEpQyg9TylbTkhdW0NASF0oQihbT0hdKVtPSF0pW0NIMl1jMltjSF1bY0hdW2NIXVtjSF1bY0hdMg==

> <s_epik_cmdline>
J2VwaWtfYXBwJywgJy1pbWFlJywgJ2xpZ2FuZF9wcm8ubWFlJywgJy1vbWFlJywgJ2xpZ2FuZF9wcmVwLm1hZScsICctbXMnLCAnMScsICctcGgnLCAnNycsICctcGh0JywgJzAuNScsICctbnQn

> <r_epik_Ionization_Penalty>
  0.1233

> <r_epik_Ionization_Penalty_Charging>
  0.1233

> <r_epik_Ionization_Penalty_Neutral>
  0.0000

> <r_epik_State_Penalty>
  0.1128

> <r_epik_Charging_Adjusted_Penalty>
0.236084207461101

> <i_epik_Tot_Q>
1

> <i_epik_Tot_abs_Q>
1

> <s_epik_Chemistry_Notes>
This compound contains a Lewis acid (boronic acid) which adds nucleophiles to form tetrahedral complexes, lowering the experimental pKa

$$$$
