966c_ligand
                    3D
 Schrodinger Suite 2020-3.
 48 50  0  0  1  0            999 V2000
    6.7140   -7.7550   42.3250 C   0  0  0  0  0  0
    5.3340   -7.8810   42.2350 C   0  0  0  0  0  0
    4.7190   -7.7530   41.0000 C   0  0  0  0  0  0
    5.4650   -7.5420   39.8360 C   0  0  0  0  0  0
    6.8450   -7.4470   39.9210 C   0  0  0  0  0  0
    7.4640   -7.5190   41.1630 C   0  0  0  0  0  0
    7.5780   -7.3090   38.7820 O   0  0  0  0  0  0
    8.1470   -8.4410   38.1950 C   0  0  0  0  0  0
    8.1560   -9.7450   38.7750 C   0  0  0  0  0  0
    8.7360  -10.8210   38.0880 C   0  0  0  0  0  0
    9.2480  -10.6020   36.8260 C   0  0  0  0  0  0
    9.3280   -9.3170   36.2600 C   0  0  0  0  0  0
    8.7630   -8.2400   36.9520 C   0  0  0  0  0  0
    9.7950  -12.0130   35.8710 S   0  0  0  0  0  0
   11.5470  -12.1890   36.1860 C   0  0  0  0  0  0
    9.5630  -11.7280   34.4700 O   0  0  0  0  0  0
    9.1070  -13.1280   36.4170 O   0  0  0  0  0  0
   12.3670  -11.0400   35.4610 C   0  0  0  0  0  0
   12.6400   -9.6860   36.2030 C   0  0  0  0  0  0
   12.9450   -9.6110   37.3810 O   0  0  0  0  0  0
   12.5200   -8.5850   35.4500 N   0  0  0  0  0  0
   12.6700   -7.2650   35.9480 O   0  0  0  0  0  0
   11.8130  -13.5790   35.5150 C   0  0  0  0  0  0
   13.2860  -14.0460   35.7420 C   0  0  0  0  0  0
   13.6120  -13.9490   37.1330 O   0  0  0  0  0  0
   13.3480  -12.7440   37.8640 C   0  0  0  0  0  0
   11.8640  -12.3560   37.7120 C   0  0  0  0  0  0
    7.2110   -7.8388   43.2915 H   0  0  0  0  0  0
    4.7402   -8.0787   43.1274 H   0  0  0  0  0  0
    3.6329   -7.8180   40.9344 H   0  0  0  0  0  0
    4.9658   -7.4531   38.8711 H   0  0  0  0  0  0
    8.5440   -7.3907   41.2353 H   0  0  0  0  0  0
    7.7099   -9.9052   39.7566 H   0  0  0  0  0  0
    8.7814  -11.8108   38.5422 H   0  0  0  0  0  0
    9.8210   -9.1629   35.3001 H   0  0  0  0  0  0
    8.8021   -7.2391   36.5221 H   0  0  0  0  0  0
   13.3706  -11.4109   35.2057 H   0  0  0  0  0  0
   11.8426  -10.7392   34.5420 H   0  0  0  0  0  0
   12.2913   -8.7490   34.3866 H   0  0  0  0  0  0
   12.5576   -6.4056   35.2707 H   0  0  0  0  0  0
   11.1369  -14.3307   35.9483 H   0  0  0  0  0  0
   11.6325  -13.5042   34.4325 H   0  0  0  0  0  0
   13.3944  -15.0901   35.4132 H   0  0  0  0  0  0
   13.9671  -13.4063   35.1616 H   0  0  0  0  0  0
   13.5751  -12.9036   38.9284 H   0  0  0  0  0  0
   13.9783  -11.9320   37.4724 H   0  0  0  0  0  0
   11.6689  -11.4070   38.2330 H   0  0  0  0  0  0
   11.2246  -13.1448   38.1352 H   0  0  0  0  0  0
  1  6  2  0  0  0
  1  2  1  0  0  0
  1 28  1  0  0  0
  2  3  2  0  0  0
  2 29  1  0  0  0
  3  4  1  0  0  0
  3 30  1  0  0  0
  4  5  2  0  0  0
  4 31  1  0  0  0
  5  7  1  0  0  0
  5  6  1  0  0  0
  6 32  1  0  0  0
  7  8  1  0  0  0
  8 13  2  0  0  0
  8  9  1  0  0  0
  9 10  2  0  0  0
  9 33  1  0  0  0
 10 11  1  0  0  0
 10 34  1  0  0  0
 11 14  1  0  0  0
 11 12  2  0  0  0
 12 13  1  0  0  0
 12 35  1  0  0  0
 13 36  1  0  0  0
 14 17  2  0  0  0
 14 16  2  0  0  0
 14 15  1  0  0  0
 15 27  1  0  0  0
 15 23  1  0  0  0
 15 18  1  0  0  0
 18 19  1  0  0  0
 18 37  1  0  0  0
 18 38  1  0  0  0
 19 21  1  0  0  0
 19 20  2  0  0  0
 21 22  1  0  0  0
 21 39  1  0  0  0
 22 40  1  0  0  0
 23 24  1  0  0  0
 23 41  1  0  0  0
 23 42  1  0  0  0
 24 25  1  0  0  0
 24 43  1  0  0  0
 24 44  1  0  0  0
 25 26  1  0  0  0
 26 27  1  0  0  0
 26 45  1  0  0  0
 26 46  1  0  0  0
 27 47  1  0  0  0
 27 48  1  0  0  0
M  END
> <s_m_source_file>
../966c_ligand.sdf

> <i_m_source_file_index>
1

> <s_epik_input>
W2NIXTFbY0hdW2NIXVtjSF1bY0hdYzFPYzJbY0hdW2NIXWMoW2NIXVtjSF0yKVMoPU8pKD1PKUMzKFtDSDJdQyg9TylbTkhdW09IXSlbQ0gyXVtDSDJdT1tDSDJdW0NIMl0z

> <s_epik_cmdline>
J2VwaWtfYXBwJywgJy1pbWFlJywgJ2xpZ2FuZF9wcm8ubWFlJywgJy1vbWFlJywgJ2xpZ2FuZF9wcmVwLm1hZScsICctbXMnLCAnMScsICctcGgnLCAnNycsICctcGh0JywgJzAuNScsICctbnQn

> <r_lp_tautomer_probability>
1

> <r_epik_Ionization_Penalty>
  0.0087

> <r_epik_Ionization_Penalty_Charging>
  0.0000

> <r_epik_Ionization_Penalty_Neutral>
  0.0087

> <r_epik_State_Penalty>
 -0.0000

> <r_epik_Charging_Adjusted_Penalty>
0

> <i_epik_Tot_Q>
0

> <i_epik_Tot_abs_Q>
0

> <s_epik_Chemistry_Notes>
This compound has a N-S or N-O group and may undergo hydrolysis at high or low pH.

$$$$
