9hvp_ligand
                    3D
 Schrodinger Suite 2020-3.
106109  0  0  1  0            999 V2000
  -12.0830   14.5940   33.2610 C   0  0  0  0  0  0
  -12.6000   15.6490   33.6620 O   0  0  0  0  0  0
  -12.6010   13.3120   33.6680 O   0  0  0  0  0  0
  -13.2990   13.0090   34.8480 C   0  0  0  0  0  0
  -12.8260   11.9560   35.9160 C   0  0  0  0  0  0
  -12.5480   10.6110   35.5570 C   0  0  0  0  0  0
  -12.2150    9.6550   36.5140 C   0  0  0  0  0  0
  -12.1380   10.0200   37.8370 C   0  0  0  0  0  0
  -12.3950   11.3240   38.2050 C   0  0  0  0  0  0
  -12.7360   12.3010   37.2760 C   0  0  0  0  0  0
  -10.9760   14.5410   32.5060 N   0  0  0  0  0  0
  -10.2250   15.6900   32.0200 C   0  0  2  0  0  0
  -10.1590   15.5510   30.5150 C   0  0  0  0  0  0
   -9.4670   14.6840   29.9680 O   0  0  0  0  0  0
   -8.7490   15.7380   32.5720 C   0  0  0  0  0  0
   -8.0760   17.0320   32.1460 C   0  0  0  0  0  0
   -8.6650   15.6460   34.0760 C   0  0  0  0  0  0
  -12.3970   16.2450   27.9550 C   0  0  0  0  0  0
  -10.9880   16.5300   28.4010 C   0  0  2  0  0  0
  -10.9200   16.4470   29.8780 N   0  0  0  0  0  0
  -10.3550   17.6980   27.6880 C   0  0  0  0  0  0
  -10.5550   18.7350   28.5720 O   0  0  0  0  0  0
   -8.8160   17.5400   27.4670 C   0  0  1  0  0  0
   -8.6210   17.4690   26.0050 N   0  0  0  0  0  0
   -7.9110   18.6430   28.0820 C   0  0  0  0  0  0
  -12.7300   14.8260   28.4350 C   0  0  0  0  0  0
  -12.1450   13.7400   27.7940 C   0  0  0  0  0  0
  -12.2950   12.4830   28.3300 C   0  0  0  0  0  0
  -13.0330   12.3000   29.4880 C   0  0  0  0  0  0
  -13.6280   13.3790   30.1080 C   0  0  0  0  0  0
  -13.4810   14.6450   29.5930 C   0  0  0  0  0  0
   -6.5470   18.7380   27.3950 C   0  0  0  0  0  0
   -6.3670   19.6140   26.3380 C   0  0  0  0  0  0
   -5.2410   19.5210   25.5490 C   0  0  0  0  0  0
   -4.2870   18.5470   25.8320 C   0  0  0  0  0  0
   -4.4380   17.6730   26.8960 C   0  0  0  0  0  0
   -5.5690   17.7770   27.6800 C   0  0  0  0  0  0
   -7.0430   16.7750   23.4060 N   0  0  0  0  0  0
   -8.4190   16.5220   23.8030 C   0  0  2  0  0  0
   -8.3660   16.3310   25.3210 C   0  0  0  0  0  0
   -7.9880   15.2560   25.8270 O   0  0  0  0  0  0
   -9.1210   15.3060   23.1670 C   0  0  0  0  0  0
  -10.5990   15.5070   23.4070 C   0  0  0  0  0  0
   -8.7550   15.1110   21.6910 C   0  0  0  0  0  0
   -6.7510   17.8020   22.6040 C   0  0  0  0  0  0
   -7.5630   18.4100   21.8750 O   0  0  0  0  0  0
   -5.4000   18.1330   22.5140 O   0  0  0  0  0  0
   -4.6830   18.4410   21.3980 C   0  0  0  0  0  0
   -3.2830   17.8450   21.4820 C   0  0  0  0  0  0
   -2.2080   18.6600   21.7690 C   0  0  0  0  0  0
   -0.9790   18.0670   21.9600 C   0  0  0  0  0  0
   -0.8230   16.6920   21.8730 C   0  0  0  0  0  0
   -1.9040   15.8970   21.5790 C   0  0  0  0  0  0
   -3.1380   16.4680   21.3740 C   0  0  0  0  0  0
  -13.3940   13.9172   35.4613 H   0  0  0  0  0  0
  -14.3006   12.6312   34.5948 H   0  0  0  0  0  0
  -12.5962   10.3194   34.5078 H   0  0  0  0  0  0
  -12.0170    8.6254   36.2160 H   0  0  0  0  0  0
  -11.8745    9.2807   38.5933 H   0  0  0  0  0  0
  -12.3287   11.5977   39.2580 H   0  0  0  0  0  0
  -12.9315   13.3236   37.5988 H   0  0  0  0  0  0
  -10.6443   13.5221   32.2576 H   0  0  0  0  0  0
  -10.7888   16.5739   32.3529 H   0  0  0  0  0  0
   -8.2065   14.8673   32.1751 H   0  0  0  0  0  0
   -8.1222   17.1261   31.0510 H   0  0  0  0  0  0
   -7.0246   17.0221   32.4691 H   0  0  0  0  0  0
   -8.5940   17.8845   32.6095 H   0  0  0  0  0  0
   -9.1458   14.7161   34.4139 H   0  0  0  0  0  0
   -9.1787   16.5087   34.5254 H   0  0  0  0  0  0
   -7.6093   15.6462   34.3849 H   0  0  0  0  0  0
  -13.0797   16.9813   28.4041 H   0  0  0  0  0  0
  -12.4552   16.3120   26.8586 H   0  0  0  0  0  0
  -10.2893   15.7405   28.0872 H   0  0  0  0  0  0
  -11.5104   17.1398   30.4956 H   0  0  0  0  0  0
  -10.8486   17.9001   26.7260 H   0  0  0  0  0  0
  -11.5765   19.0166   28.8674 H   0  0  0  0  0  0
   -8.4746   16.6146   27.9538 H   0  0  0  0  0  0
   -8.6799   18.3839   25.3972 H   0  0  0  0  0  0
   -8.4064   19.6203   27.9844 H   0  0  0  0  0  0
   -7.7380   18.4243   29.1461 H   0  0  0  0  0  0
  -11.5738   13.8835   26.8768 H   0  0  0  0  0  0
  -11.8310   11.6262   27.8415 H   0  0  0  0  0  0
  -13.1437   11.3012   29.9101 H   0  0  0  0  0  0
  -14.2182   13.2269   31.0116 H   0  0  0  0  0  0
  -13.9474   15.4979   30.0860 H   0  0  0  0  0  0
   -7.1164   20.3777   26.1298 H   0  0  0  0  0  0
   -5.0985   20.2035   24.7112 H   0  0  0  0  0  0
   -3.4010   18.4705   25.2018 H   0  0  0  0  0  0
   -3.6799   16.9194   27.1094 H   0  0  0  0  0  0
   -5.7022   17.1055   28.5282 H   0  0  0  0  0  0
   -6.2370   16.1189   23.7666 H   0  0  0  0  0  0
   -8.9714   17.3989   23.4345 H   0  0  0  0  0  0
   -8.8038   14.3605   23.6312 H   0  0  0  0  0  0
  -10.7810   15.6391   24.4838 H   0  0  0  0  0  0
  -11.1519   14.6269   23.0469 H   0  0  0  0  0  0
  -10.9402   16.4014   22.8650 H   0  0  0  0  0  0
   -7.6678   14.9717   21.5981 H   0  0  0  0  0  0
   -9.0614   15.9979   21.1170 H   0  0  0  0  0  0
   -9.2732   14.2234   21.2989 H   0  0  0  0  0  0
   -5.1919   18.0345   20.5115 H   0  0  0  0  0  0
   -4.6011   19.5340   21.3048 H   0  0  0  0  0  0
   -2.3271   19.7410   21.8425 H   0  0  0  0  0  0
   -0.1133   18.6904   22.1836 H   0  0  0  0  0  0
    0.1562   16.2424   22.0377 H   0  0  0  0  0  0
   -1.7838   14.8159   21.5084 H   0  0  0  0  0  0
   -3.9971   15.8437   21.1283 H   0  0  0  0  0  0
  1  2  2  0  0  0
  1  3  1  0  0  0
  1 11  1  0  0  0
  3  4  1  0  0  0
  4  5  1  0  0  0
  4 55  1  0  0  0
  4 56  1  0  0  0
  5  6  2  0  0  0
  5 10  1  0  0  0
  6  7  1  0  0  0
  6 57  1  0  0  0
  7  8  2  0  0  0
  7 58  1  0  0  0
  8  9  1  0  0  0
  8 59  1  0  0  0
  9 10  2  0  0  0
  9 60  1  0  0  0
 10 61  1  0  0  0
 11 12  1  0  0  0
 11 62  1  0  0  0
 12 13  1  0  0  0
 12 15  1  0  0  0
 12 63  1  0  0  0
 13 14  2  0  0  0
 13 20  1  0  0  0
 15 16  1  0  0  0
 15 17  1  0  0  0
 15 64  1  0  0  0
 16 65  1  0  0  0
 16 66  1  0  0  0
 16 67  1  0  0  0
 17 68  1  0  0  0
 17 69  1  0  0  0
 17 70  1  0  0  0
 18 19  1  0  0  0
 18 26  1  0  0  0
 18 71  1  0  0  0
 18 72  1  0  0  0
 19 20  1  0  0  0
 19 21  1  0  0  0
 19 73  1  0  0  0
 20 74  1  0  0  0
 21 22  1  0  0  0
 21 23  1  0  0  0
 21 75  1  0  0  0
 22 76  1  0  0  0
 23 24  1  0  0  0
 23 25  1  0  0  0
 23 77  1  0  0  0
 24 40  1  0  0  0
 24 78  1  0  0  0
 25 32  1  0  0  0
 25 79  1  0  0  0
 25 80  1  0  0  0
 26 27  2  0  0  0
 26 31  1  0  0  0
 27 28  1  0  0  0
 27 81  1  0  0  0
 28 29  2  0  0  0
 28 82  1  0  0  0
 29 30  1  0  0  0
 29 83  1  0  0  0
 30 31  2  0  0  0
 30 84  1  0  0  0
 31 85  1  0  0  0
 32 33  2  0  0  0
 32 37  1  0  0  0
 33 34  1  0  0  0
 33 86  1  0  0  0
 34 35  2  0  0  0
 34 87  1  0  0  0
 35 36  1  0  0  0
 35 88  1  0  0  0
 36 37  2  0  0  0
 36 89  1  0  0  0
 37 90  1  0  0  0
 38 39  1  0  0  0
 38 45  1  0  0  0
 38 91  1  0  0  0
 39 40  1  0  0  0
 39 42  1  0  0  0
 39 92  1  0  0  0
 40 41  2  0  0  0
 42 43  1  0  0  0
 42 44  1  0  0  0
 42 93  1  0  0  0
 43 94  1  0  0  0
 43 95  1  0  0  0
 43 96  1  0  0  0
 44 97  1  0  0  0
 44 98  1  0  0  0
 44 99  1  0  0  0
 45 46  2  0  0  0
 45 47  1  0  0  0
 47 48  1  0  0  0
 48 49  1  0  0  0
 48100  1  0  0  0
 48101  1  0  0  0
 49 50  2  0  0  0
 49 54  1  0  0  0
 50 51  1  0  0  0
 50102  1  0  0  0
 51 52  2  0  0  0
 51103  1  0  0  0
 52 53  1  0  0  0
 52104  1  0  0  0
 53 54  2  0  0  0
 53105  1  0  0  0
 54106  1  0  0  0
M  END
> <s_m_source_file>
../9hvp_ligand.sdf

> <i_m_source_file_index>
1

> <s_epik_input>
W2NIXTFbY0hdW2NIXVtjSF1bY0hdYzFbQ0gyXU9DKD1PKVtOSF1bQ0BASF0oW0NIXShbQ0gzXSlbQ0gzXSlDKD1PKVtOSF1bQ0BASF0oW0NIMl1jMltjSF1bY0hdW2NIXVtjSF1bY0hdMilbQ0hdKFtPSF0pW0NASF0oW0NIMl1jM1tjSF1bY0hdW2NIXVtjSF1bY0hdMylbTkhdQyg9TylbQ0BIXShbQ0hdKFtDSDNdKVtDSDNdKVtOSF1DKD1PKU9bQ0gyXWM0W2NIXVtjSF1bY0hdW2NIXVtjSF00

> <s_epik_cmdline>
J2VwaWtfYXBwJywgJy1pbWFlJywgJ2xpZ2FuZF9wcm8ubWFlJywgJy1vbWFlJywgJ2xpZ2FuZF9wcmVwLm1hZScsICctbXMnLCAnMScsICctcGgnLCAnNycsICctcGh0JywgJzAuNScsICctbnQn

> <r_lp_tautomer_probability>
1

> <r_epik_Ionization_Penalty>
  0.0000

> <r_epik_Ionization_Penalty_Charging>
  0.0000

> <r_epik_Ionization_Penalty_Neutral>
  0.0000

> <r_epik_State_Penalty>
 -0.0000

> <r_epik_Charging_Adjusted_Penalty>
0

> <i_epik_Tot_Q>
0

> <i_epik_Tot_abs_Q>
0

> <s_epik_Chemistry_Notes>
This compound has an ester and may undergo hydrolysis at high or low pH.

$$$$
