9icd_ligand
                    3D
 Schrodinger Suite 2020-3.
 38 40  0  0  1  0            999 V2000
   92.2630   68.0070   -4.8080 P   0  0  0  0  0  0
   90.9990   67.5990   -4.0720 O   0  5  0  0  0  0
   92.1430   68.3570   -6.2680 O   0  0  0  0  0  0
   92.9560   69.3650   -4.0630 O   0  0  0  0  0  0
   92.9840   70.5920   -4.8760 C   0  0  0  0  0  0
   94.2650   71.4820   -4.9610 C   0  0  1  0  0  0
   94.6380   72.2440   -3.7720 O   0  0  0  0  0  0
   95.5560   70.7450   -5.3140 C   0  0  1  0  0  0
   95.6060   70.3770   -6.6870 O   0  0  0  0  0  0
   96.6440   71.7390   -4.9400 C   0  0  1  0  0  0
   96.5020   73.0090   -5.5770 O   0  0  0  0  0  0
   96.0700   72.1220   -3.6050 C   0  0  2  0  0  0
   96.4410   71.2080   -2.4800 N   0  0  0  0  0  0
   95.8060   70.0480   -2.0030 C   0  0  0  0  0  0
   96.3310   69.6110   -0.8850 N   0  0  0  0  0  0
   97.3580   70.5150   -0.5980 C   0  0  0  0  0  0
   98.2850   70.5970    0.4440 C   0  0  0  0  0  0
   98.3330   69.7400    1.4290 N   0  0  0  0  0  0
   99.1900   71.5750    0.3900 N   0  0  0  0  0  0
   99.1860   72.4550   -0.6200 C   0  0  0  0  0  0
   98.3490   72.4960   -1.6640 N   0  0  0  0  0  0
   97.4410   71.4870   -1.5770 C   0  0  0  0  0  0
   93.4580   66.8580   -4.7070 O   0  5  0  0  0  0
   97.5240   73.6230   -6.7080 P   0  0  0  0  0  0
   97.0190   74.9710   -7.1020 O   0  0  0  0  0  0
   97.6760   72.5310   -7.7170 O   0  5  0  0  0  0
   98.9760   73.9170   -6.0420 O   0  5  0  0  0  0
   92.7822   70.3398   -5.9275 H   0  0  0  0  0  0
   92.2157   71.2903   -4.5125 H   0  0  0  0  0  0
   93.9459   72.2027   -5.7283 H   0  0  0  0  0  0
   95.6670   69.7561   -4.8453 H   0  0  0  0  0  0
   94.8741   69.6627   -7.0920 H   0  0  0  0  0  0
   97.6628   71.3668   -5.1230 H   0  0  0  0  0  0
   96.4738   73.0963   -3.2924 H   0  0  0  0  0  0
   94.9691   69.5653   -2.5077 H   0  0  0  0  0  0
   97.5937   68.9276    1.4877 H   0  0  0  0  0  0
   99.1127   69.8309    2.1996 H   0  0  0  0  0  0
   99.9539   73.2279   -0.5881 H   0  0  0  0  0  0
  1  2  1  0  0  0
  1  3  2  0  0  0
  1  4  1  0  0  0
  1 23  1  0  0  0
  4  5  1  0  0  0
  5  6  1  0  0  0
  5 28  1  0  0  0
  5 29  1  0  0  0
  6  7  1  0  0  0
  6  8  1  0  0  0
  6 30  1  0  0  0
  7 12  1  0  0  0
  8  9  1  0  0  0
  8 10  1  0  0  0
  8 31  1  0  0  0
  9 32  1  0  0  0
 10 11  1  0  0  0
 10 12  1  0  0  0
 10 33  1  0  0  0
 11 24  1  0  0  0
 12 13  1  0  0  0
 12 34  1  0  0  0
 13 14  1  0  0  0
 13 22  1  0  0  0
 14 15  2  0  0  0
 14 35  1  0  0  0
 15 16  1  0  0  0
 16 17  2  0  0  0
 16 22  1  0  0  0
 17 18  1  0  0  0
 17 19  1  0  0  0
 18 36  1  0  0  0
 18 37  1  0  0  0
 19 20  2  0  0  0
 20 21  1  0  0  0
 20 38  1  0  0  0
 21 22  2  0  0  0
 24 25  2  0  0  0
 24 26  1  0  0  0
 24 27  1  0  0  0
M  CHG  4   2  -1  23  -1  26  -1  27  -1
M  END
> <s_m_source_file>
../9icd_ligand.sdf

> <i_m_source_file_index>
1

> <s_epik_input>
W09IXVAoPU8pKFtPSF0pT1tDSDJdW0NASF0xT1tDQEhdKFtDQEBIXShbQ0BASF0xW09IXSlPUCg9TykoW09IXSlbT0hdKW4oW2NIXW4yKWMoYzIzKW5bY0hdbmMzW05IMl0=

> <s_epik_cmdline>
J2VwaWtfYXBwJywgJy1pbWFlJywgJ2xpZ2FuZF9wcm8ubWFlJywgJy1vbWFlJywgJ2xpZ2FuZF9wcmVwLm1hZScsICctbXMnLCAnMScsICctcGgnLCAnNycsICctcGh0JywgJzAuNScsICctbnQn

> <r_lp_tautomer_probability>
1

> <r_epik_Ionization_Penalty>
  0.1673

> <r_epik_Ionization_Penalty_Charging>
  0.1667

> <r_epik_Ionization_Penalty_Neutral>
  0.0006

> <r_epik_State_Penalty>
 -0.0000

> <r_epik_Charging_Adjusted_Penalty>
0.166734079087257

> <i_epik_Tot_Q>
-4

> <i_epik_Tot_abs_Q>
4

> <s_epik_Chemistry_Notes>
This compound contains an acetal/aminal-like group ( X-CH(R)-Y where X, Y are N, S, or O) that may be acid/base labile, releasing an aldehyde.

$$$$
