9lpr_ligand
                    3D
 Schrodinger Suite 2020-3.
 58 58  0  0  1  0            999 V2000
   13.1020   41.8450   18.4670 N   0  3  0  0  0  0
   13.9700   40.6270   18.4770 C   0  0  2  0  0  0
   13.1670   39.3350   18.7140 C   0  0  0  0  0  0
   12.4510   39.2520   19.7500 O   0  0  0  0  0  0
   15.0550   40.4570   19.5440 C   0  0  0  0  0  0
   13.3660   38.4190   17.7830 N   0  0  0  0  0  0
   12.6620   37.1300   17.9730 C   0  0  2  0  0  0
   13.6440   35.9970   17.6930 C   0  0  0  0  0  0
   14.5590   36.2630   16.8870 O   0  0  0  0  0  0
   11.5300   37.0890   16.9810 C   0  0  0  0  0  0
   13.3980   34.8570   18.3120 N   0  0  0  0  0  0
   14.2030   33.6620   18.0490 C   0  0  2  0  0  0
   13.8560   33.1750   16.6400 C   0  0  0  0  0  0
   12.6420   33.2800   16.2790 O   0  0  0  0  0  0
   13.7150   32.6720   19.1100 C   0  0  0  0  0  0
   12.7100   33.3470   19.9620 C   0  0  0  0  0  0
   12.2610   34.6040   19.2190 C   0  0  0  0  0  0
   14.4300   32.1340   14.4880 C   0  0  2  0  0  0
   15.0530   33.1020   13.4490 C   0  0  0  0  0  0
   14.5980   34.5320   13.7570 C   0  0  0  0  0  0
   15.5590   35.3810   13.0310 C   0  0  0  0  0  0
   13.2280   34.9240   13.2220 C   0  0  0  0  0  0
   14.7650   32.6240   15.8380 N   0  0  0  0  0  0
   14.8110   30.6480   14.2750 B   0  0  0  0  0  0
   14.7480   30.1580   12.8370 O   0  0  0  0  0  0
   14.0430   29.7820   15.2160 O   0  0  0  0  0  0
   12.3904   41.7813   17.6306 H   0  0  0  0  0  0
   13.7289   42.7410   18.3476 H   0  0  0  0  0  0
   12.5484   41.9085   19.4154 H   0  0  0  0  0  0
   14.4172   40.8132   17.4894 H   0  0  0  0  0  0
   15.7375   41.3191   19.5135 H   0  0  0  0  0  0
   15.6208   39.5343   19.3478 H   0  0  0  0  0  0
   14.5861   40.3955   20.5372 H   0  0  0  0  0  0
   14.0102   38.5695   16.9041 H   0  0  0  0  0  0
   12.2733   37.0493   18.9989 H   0  0  0  0  0  0
   10.8281   37.9094   17.1915 H   0  0  0  0  0  0
   11.0043   36.1263   17.0641 H   0  0  0  0  0  0
   11.9306   37.2013   15.9627 H   0  0  0  0  0  0
   15.2857   33.8482   18.1051 H   0  0  0  0  0  0
   13.2614   31.7998   18.6166 H   0  0  0  0  0  0
   14.5663   32.3440   19.7246 H   0  0  0  0  0  0
   11.8584   32.6713   20.1299 H   0  0  0  0  0  0
   13.1655   33.6099   20.9281 H   0  0  0  0  0  0
   12.1235   35.4689   19.8846 H   0  0  0  0  0  0
   11.3472   34.4481   18.6268 H   0  0  0  0  0  0
   13.3332   32.1569   14.4077 H   0  0  0  0  0  0
   16.1500   33.0434   13.5050 H   0  0  0  0  0  0
   14.7218   32.8186   12.4391 H   0  0  0  0  0  0
   14.5660   34.6635   14.8486 H   0  0  0  0  0  0
   16.5801   35.1507   13.3691 H   0  0  0  0  0  0
   15.3367   36.4397   13.2305 H   0  0  0  0  0  0
   15.4776   35.1864   11.9514 H   0  0  0  0  0  0
   12.4535   34.3251   13.7235 H   0  0  0  0  0  0
   13.1907   34.7384   12.1384 H   0  0  0  0  0  0
   13.0498   35.9917   13.4175 H   0  0  0  0  0  0
   15.7956   32.5404   16.2134 H   0  0  0  0  0  0
   15.2740   30.7101   12.0443 H   0  0  0  0  0  0
   14.0092   30.0288   16.2874 H   0  0  0  0  0  0
  1  2  1  0  0  0
  1 27  1  0  0  0
  1 28  1  0  0  0
  1 29  1  0  0  0
  2  3  1  0  0  0
  2  5  1  0  0  0
  2 30  1  0  0  0
  3  4  2  0  0  0
  3  6  1  0  0  0
  5 31  1  0  0  0
  5 32  1  0  0  0
  5 33  1  0  0  0
  6  7  1  0  0  0
  6 34  1  0  0  0
  7  8  1  0  0  0
  7 10  1  0  0  0
  7 35  1  0  0  0
  8  9  2  0  0  0
  8 11  1  0  0  0
 10 36  1  0  0  0
 10 37  1  0  0  0
 10 38  1  0  0  0
 11 12  1  0  0  0
 11 17  1  0  0  0
 12 13  1  0  0  0
 12 15  1  0  0  0
 12 39  1  0  0  0
 13 14  2  0  0  0
 13 23  1  0  0  0
 15 16  1  0  0  0
 15 40  1  0  0  0
 15 41  1  0  0  0
 16 17  1  0  0  0
 16 42  1  0  0  0
 16 43  1  0  0  0
 17 44  1  0  0  0
 17 45  1  0  0  0
 18 19  1  0  0  0
 18 23  1  0  0  0
 18 24  1  0  0  0
 18 46  1  0  0  0
 19 20  1  0  0  0
 19 47  1  0  0  0
 19 48  1  0  0  0
 20 21  1  0  0  0
 20 22  1  0  0  0
 20 49  1  0  0  0
 21 50  1  0  0  0
 21 51  1  0  0  0
 21 52  1  0  0  0
 22 53  1  0  0  0
 22 54  1  0  0  0
 22 55  1  0  0  0
 23 56  1  0  0  0
 24 25  1  0  0  0
 24 26  1  0  0  0
 25 57  1  0  0  0
 26 58  1  0  0  0
M  CHG  1   1   1
M  END
> <s_m_source_file>
../9lpr_ligand.sdf

> <i_m_source_file_index>
1

> <s_epik_input>
W05IMytdW0NAQEhdKFtDSDNdKUMoPU8pW05IXVtDQEBIXShbQ0gzXSlDKD1PKU4xW0NAQEhdKFtDSDJdW0NIMl1bQ0gyXTEpQyg9TylbTkhdW0NASF0oQihbT0hdKVtPSF0pW0NIMl1bQ0hdKFtDSDNdKVtDSDNd

> <s_epik_cmdline>
J2VwaWtfYXBwJywgJy1pbWFlJywgJ2xpZ2FuZF9wcm8ubWFlJywgJy1vbWFlJywgJ2xpZ2FuZF9wcmVwLm1hZScsICctbXMnLCAnMScsICctcGgnLCAnNycsICctcGh0JywgJzAuNScsICctbnQn

> <r_epik_Ionization_Penalty>
  0.1233

> <r_epik_Ionization_Penalty_Charging>
  0.1233

> <r_epik_Ionization_Penalty_Neutral>
  0.0000

> <r_epik_State_Penalty>
  0.1128

> <r_epik_Charging_Adjusted_Penalty>
0.236084207461101

> <i_epik_Tot_Q>
1

> <i_epik_Tot_abs_Q>
1

> <s_epik_Chemistry_Notes>
This compound contains a Lewis acid (boronic acid) which adds nucleophiles to form tetrahedral complexes, lowering the experimental pKa

$$$$
